Warning: file 'memory.vmh' for memory 'iMem' has a gap at addresses 20 to 49.
Warning: file 'memory.vmh' for memory 'iMem' has a gap at address 67.
Warning: file 'memory.vmh' for memory 'iMem' has a gap at addresses 104 to 67108863.
Warning: file 'memory.vmh' for memory 'mem' has a gap at addresses 20 to 49.
Warning: file 'memory.vmh' for memory 'mem' has a gap at address 67.
Warning: file 'memory.vmh' for memory 'mem' has a gap at addresses 104 to 1048575.

Cycle          0 ----------------------------------------------------

cycle          0
Fetch1
Fetch : from Pc          0 , expanded inst : 30f4f4010000, 
irmovl $000001f4,  %4

Cycle          1 ----------------------------------------------------

cycle          1
Fetch1
Fetch : from Pc          6 , expanded inst : 30f5f4010000, 
irmovl $000001f4,  %5

Cycle          2 ----------------------------------------------------

cycle          2
Exec on pc          0
Fetch1
Fetch : from Pc         12 , expanded inst : 701001000000, 
jmp $00000110

Cycle          3 ----------------------------------------------------

cycle          3
Mem on pc          0
Exec on pc          6
Fetch1
Fetch : from Pc         17 , expanded inst : 000000000000, 
halt

Cycle          4 ----------------------------------------------------

cycle          4
Mem on pc          6
Exec on pc         12
ExecRedirect : addr        272
Write Back
WriteE writes        500 on  4
Fetch1
Fetch : from Pc        272 , expanded inst : 30f4f4010000, 
irmovl $000001f4,  %4

Cycle          5 ----------------------------------------------------

cycle          5
Mem on pc         12
Exec : Invalidated on pc         17
Write Back
WriteE writes        500 on  5
Fetch1
Fetch : from Pc        278 , expanded inst : 204530f30000, 
rrmovl %4, %5

Cycle          6 ----------------------------------------------------

cycle          6
Mem invalidated on pc         17
Exec on pc        272
Write Back
stall occured

Cycle          7 ----------------------------------------------------

cycle          7
Mem on pc        272
Write Back
stall occured

Cycle          8 ----------------------------------------------------

cycle          8
Write Back
WriteE writes        500 on  4
Fetch1
Fetch : from Pc        280 , expanded inst : 30f300000000, 
irmovl $00000000,  %3

Cycle          9 ----------------------------------------------------

cycle          9
Exec on pc        278
Fetch1
Fetch : from Pc        286 , expanded inst : 30f150000000, 
irmovl $00000050,  %1

Cycle         10 ----------------------------------------------------

cycle         10
Mem on pc        278
Exec on pc        280
Fetch1
Fetch : from Pc        292 , expanded inst : 30f204000000, 
irmovl $00000004,  %2

Cycle         11 ----------------------------------------------------

cycle         11
Mem on pc        280
Exec on pc        286
Write Back
WriteE writes        500 on  5
Fetch1
Fetch : from Pc        298 , expanded inst : a01fa02fa03f, 
push %1

Cycle         12 ----------------------------------------------------

cycle         12
Mem on pc        286
Exec on pc        292
Write Back
WriteE writes          0 on  3
stall occured

Cycle         13 ----------------------------------------------------

cycle         13
Mem on pc        292
Write Back
WriteE writes         80 on  1
Fetch1
Fetch : from Pc        300 , expanded inst : a02fa03f80c8, 
push %2

Cycle         14 ----------------------------------------------------

cycle         14
Exec on pc        298
Write Back
WriteE writes          4 on  2
stall occured

Cycle         15 ----------------------------------------------------

cycle         15
stall occured

Cycle         16 ----------------------------------------------------

cycle         16
stall occured

Cycle         17 ----------------------------------------------------

cycle         17
stall occured

Cycle         18 ----------------------------------------------------

cycle         18
stall occured

Cycle         19 ----------------------------------------------------

cycle         19
stall occured

Cycle         20 ----------------------------------------------------

cycle         20
stall occured

Cycle         21 ----------------------------------------------------

cycle         21
stall occured

Cycle         22 ----------------------------------------------------

cycle         22
stall occured

Cycle         23 ----------------------------------------------------

cycle         23
stall occured

Cycle         24 ----------------------------------------------------

cycle         24
stall occured

Cycle         25 ----------------------------------------------------

cycle         25
stall occured

Cycle         26 ----------------------------------------------------

cycle         26
stall occured

Cycle         27 ----------------------------------------------------

cycle         27
stall occured

Cycle         28 ----------------------------------------------------

cycle         28
stall occured

Cycle         29 ----------------------------------------------------

cycle         29
stall occured

Cycle         30 ----------------------------------------------------

cycle         30
stall occured

Cycle         31 ----------------------------------------------------

cycle         31
stall occured

Cycle         32 ----------------------------------------------------

cycle         32
stall occured

Cycle         33 ----------------------------------------------------

cycle         33
stall occured

Cycle         34 ----------------------------------------------------

cycle         34
stall occured

Cycle         35 ----------------------------------------------------

cycle         35
stall occured

Cycle         36 ----------------------------------------------------

cycle         36
stall occured

Cycle         37 ----------------------------------------------------

cycle         37
stall occured

Cycle         38 ----------------------------------------------------

cycle         38
stall occured

Cycle         39 ----------------------------------------------------

cycle         39
stall occured

Cycle         40 ----------------------------------------------------

cycle         40
Mem on pc        298
Store         80 on        496
stall occured

Cycle         41 ----------------------------------------------------

cycle         41
Write Back
WriteE writes        496 on  4
Fetch1
Fetch : from Pc        302 , expanded inst : a03f80c80000, 
push %3

Cycle         42 ----------------------------------------------------

cycle         42
Exec on pc        300
stall occured

Cycle         43 ----------------------------------------------------

cycle         43
Mem on pc        300
Store          4 on        492
stall occured

Cycle         44 ----------------------------------------------------

cycle         44
Write Back
WriteE writes        492 on  4
Fetch1
Fetch : from Pc        304 , expanded inst : 80c8000000b0, 
call 000000c8

Cycle         45 ----------------------------------------------------

cycle         45
Exec on pc        302
stall occured

Cycle         46 ----------------------------------------------------

cycle         46
Mem on pc        302
Store          0 on        488
stall occured

Cycle         47 ----------------------------------------------------

cycle         47
Write Back
WriteE writes        488 on  4
Fetch1
Fetch : from Pc        200 , expanded inst : a05f2045a03f, 
push %5

Cycle         48 ----------------------------------------------------

cycle         48
Exec on pc        304
stall occured

Cycle         49 ----------------------------------------------------

cycle         49
stall occured

Cycle         50 ----------------------------------------------------

cycle         50
stall occured

Cycle         51 ----------------------------------------------------

cycle         51
stall occured

Cycle         52 ----------------------------------------------------

cycle         52
stall occured

Cycle         53 ----------------------------------------------------

cycle         53
stall occured

Cycle         54 ----------------------------------------------------

cycle         54
stall occured

Cycle         55 ----------------------------------------------------

cycle         55
stall occured

Cycle         56 ----------------------------------------------------

cycle         56
stall occured

Cycle         57 ----------------------------------------------------

cycle         57
stall occured

Cycle         58 ----------------------------------------------------

cycle         58
stall occured

Cycle         59 ----------------------------------------------------

cycle         59
stall occured

Cycle         60 ----------------------------------------------------

cycle         60
stall occured

Cycle         61 ----------------------------------------------------

cycle         61
stall occured

Cycle         62 ----------------------------------------------------

cycle         62
stall occured

Cycle         63 ----------------------------------------------------

cycle         63
stall occured

Cycle         64 ----------------------------------------------------

cycle         64
stall occured

Cycle         65 ----------------------------------------------------

cycle         65
stall occured

Cycle         66 ----------------------------------------------------

cycle         66
stall occured

Cycle         67 ----------------------------------------------------

cycle         67
stall occured

Cycle         68 ----------------------------------------------------

cycle         68
stall occured

Cycle         69 ----------------------------------------------------

cycle         69
stall occured

Cycle         70 ----------------------------------------------------

cycle         70
stall occured

Cycle         71 ----------------------------------------------------

cycle         71
stall occured

Cycle         72 ----------------------------------------------------

cycle         72
stall occured

Cycle         73 ----------------------------------------------------

cycle         73
stall occured

Cycle         74 ----------------------------------------------------

cycle         74
stall occured

Cycle         75 ----------------------------------------------------

cycle         75
stall occured

Cycle         76 ----------------------------------------------------

cycle         76
stall occured

Cycle         77 ----------------------------------------------------

cycle         77
stall occured

Cycle         78 ----------------------------------------------------

cycle         78
stall occured

Cycle         79 ----------------------------------------------------

cycle         79
stall occured

Cycle         80 ----------------------------------------------------

cycle         80
stall occured

Cycle         81 ----------------------------------------------------

cycle         81
stall occured

Cycle         82 ----------------------------------------------------

cycle         82
stall occured

Cycle         83 ----------------------------------------------------

cycle         83
stall occured

Cycle         84 ----------------------------------------------------

cycle         84
stall occured

Cycle         85 ----------------------------------------------------

cycle         85
stall occured

Cycle         86 ----------------------------------------------------

cycle         86
stall occured

Cycle         87 ----------------------------------------------------

cycle         87
stall occured

Cycle         88 ----------------------------------------------------

cycle         88
stall occured

Cycle         89 ----------------------------------------------------

cycle         89
stall occured

Cycle         90 ----------------------------------------------------

cycle         90
stall occured

Cycle         91 ----------------------------------------------------

cycle         91
stall occured

Cycle         92 ----------------------------------------------------

cycle         92
stall occured

Cycle         93 ----------------------------------------------------

cycle         93
stall occured

Cycle         94 ----------------------------------------------------

cycle         94
stall occured

Cycle         95 ----------------------------------------------------

cycle         95
stall occured

Cycle         96 ----------------------------------------------------

cycle         96
stall occured

Cycle         97 ----------------------------------------------------

cycle         97
stall occured

Cycle         98 ----------------------------------------------------

cycle         98
stall occured

Cycle         99 ----------------------------------------------------

cycle         99
stall occured

Cycle        100 ----------------------------------------------------

cycle        100
stall occured

Cycle        101 ----------------------------------------------------

cycle        101
stall occured

Cycle        102 ----------------------------------------------------

cycle        102
stall occured

Cycle        103 ----------------------------------------------------

cycle        103
stall occured

Cycle        104 ----------------------------------------------------

cycle        104
stall occured

Cycle        105 ----------------------------------------------------

cycle        105
stall occured

Cycle        106 ----------------------------------------------------

cycle        106
stall occured

Cycle        107 ----------------------------------------------------

cycle        107
stall occured

Cycle        108 ----------------------------------------------------

cycle        108
stall occured

Cycle        109 ----------------------------------------------------

cycle        109
stall occured

Cycle        110 ----------------------------------------------------

cycle        110
stall occured

Cycle        111 ----------------------------------------------------

cycle        111
stall occured

Cycle        112 ----------------------------------------------------

cycle        112
stall occured

Cycle        113 ----------------------------------------------------

cycle        113
stall occured

Cycle        114 ----------------------------------------------------

cycle        114
stall occured

Cycle        115 ----------------------------------------------------

cycle        115
stall occured

Cycle        116 ----------------------------------------------------

cycle        116
stall occured

Cycle        117 ----------------------------------------------------

cycle        117
stall occured

Cycle        118 ----------------------------------------------------

cycle        118
stall occured

Cycle        119 ----------------------------------------------------

cycle        119
stall occured

Cycle        120 ----------------------------------------------------

cycle        120
stall occured

Cycle        121 ----------------------------------------------------

cycle        121
stall occured

Cycle        122 ----------------------------------------------------

cycle        122
stall occured

Cycle        123 ----------------------------------------------------

cycle        123
stall occured

Cycle        124 ----------------------------------------------------

cycle        124
stall occured

Cycle        125 ----------------------------------------------------

cycle        125
stall occured

Cycle        126 ----------------------------------------------------

cycle        126
stall occured

Cycle        127 ----------------------------------------------------

cycle        127
stall occured

Cycle        128 ----------------------------------------------------

cycle        128
stall occured

Cycle        129 ----------------------------------------------------

cycle        129
stall occured

Cycle        130 ----------------------------------------------------

cycle        130
stall occured

Cycle        131 ----------------------------------------------------

cycle        131
stall occured

Cycle        132 ----------------------------------------------------

cycle        132
stall occured

Cycle        133 ----------------------------------------------------

cycle        133
stall occured

Cycle        134 ----------------------------------------------------

cycle        134
stall occured

Cycle        135 ----------------------------------------------------

cycle        135
stall occured

Cycle        136 ----------------------------------------------------

cycle        136
stall occured

Cycle        137 ----------------------------------------------------

cycle        137
stall occured

Cycle        138 ----------------------------------------------------

cycle        138
stall occured

Cycle        139 ----------------------------------------------------

cycle        139
stall occured

Cycle        140 ----------------------------------------------------

cycle        140
stall occured

Cycle        141 ----------------------------------------------------

cycle        141
stall occured

Cycle        142 ----------------------------------------------------

cycle        142
stall occured

Cycle        143 ----------------------------------------------------

cycle        143
stall occured

Cycle        144 ----------------------------------------------------

cycle        144
stall occured

Cycle        145 ----------------------------------------------------

cycle        145
Mem on pc        304
Store        309 on        484
stall occured

Cycle        146 ----------------------------------------------------

cycle        146
Write Back
WriteE writes        484 on  4
Fetch1
Fetch : from Pc        202 , expanded inst : 2045a03fa06f, 
rrmovl %4, %5

Cycle        147 ----------------------------------------------------

cycle        147
Exec on pc        200
stall occured

Cycle        148 ----------------------------------------------------

cycle        148
stall occured

Cycle        149 ----------------------------------------------------

cycle        149
stall occured

Cycle        150 ----------------------------------------------------

cycle        150
stall occured

Cycle        151 ----------------------------------------------------

cycle        151
stall occured

Cycle        152 ----------------------------------------------------

cycle        152
stall occured

Cycle        153 ----------------------------------------------------

cycle        153
stall occured

Cycle        154 ----------------------------------------------------

cycle        154
stall occured

Cycle        155 ----------------------------------------------------

cycle        155
stall occured

Cycle        156 ----------------------------------------------------

cycle        156
stall occured

Cycle        157 ----------------------------------------------------

cycle        157
stall occured

Cycle        158 ----------------------------------------------------

cycle        158
stall occured

Cycle        159 ----------------------------------------------------

cycle        159
stall occured

Cycle        160 ----------------------------------------------------

cycle        160
stall occured

Cycle        161 ----------------------------------------------------

cycle        161
stall occured

Cycle        162 ----------------------------------------------------

cycle        162
stall occured

Cycle        163 ----------------------------------------------------

cycle        163
stall occured

Cycle        164 ----------------------------------------------------

cycle        164
stall occured

Cycle        165 ----------------------------------------------------

cycle        165
stall occured

Cycle        166 ----------------------------------------------------

cycle        166
stall occured

Cycle        167 ----------------------------------------------------

cycle        167
stall occured

Cycle        168 ----------------------------------------------------

cycle        168
stall occured

Cycle        169 ----------------------------------------------------

cycle        169
stall occured

Cycle        170 ----------------------------------------------------

cycle        170
stall occured

Cycle        171 ----------------------------------------------------

cycle        171
stall occured

Cycle        172 ----------------------------------------------------

cycle        172
stall occured

Cycle        173 ----------------------------------------------------

cycle        173
stall occured

Cycle        174 ----------------------------------------------------

cycle        174
stall occured

Cycle        175 ----------------------------------------------------

cycle        175
stall occured

Cycle        176 ----------------------------------------------------

cycle        176
stall occured

Cycle        177 ----------------------------------------------------

cycle        177
stall occured

Cycle        178 ----------------------------------------------------

cycle        178
stall occured

Cycle        179 ----------------------------------------------------

cycle        179
stall occured

Cycle        180 ----------------------------------------------------

cycle        180
stall occured

Cycle        181 ----------------------------------------------------

cycle        181
stall occured

Cycle        182 ----------------------------------------------------

cycle        182
stall occured

Cycle        183 ----------------------------------------------------

cycle        183
stall occured

Cycle        184 ----------------------------------------------------

cycle        184
stall occured

Cycle        185 ----------------------------------------------------

cycle        185
stall occured

Cycle        186 ----------------------------------------------------

cycle        186
stall occured

Cycle        187 ----------------------------------------------------

cycle        187
stall occured

Cycle        188 ----------------------------------------------------

cycle        188
stall occured

Cycle        189 ----------------------------------------------------

cycle        189
stall occured

Cycle        190 ----------------------------------------------------

cycle        190
stall occured

Cycle        191 ----------------------------------------------------

cycle        191
stall occured

Cycle        192 ----------------------------------------------------

cycle        192
stall occured

Cycle        193 ----------------------------------------------------

cycle        193
stall occured

Cycle        194 ----------------------------------------------------

cycle        194
stall occured

Cycle        195 ----------------------------------------------------

cycle        195
stall occured

Cycle        196 ----------------------------------------------------

cycle        196
stall occured

Cycle        197 ----------------------------------------------------

cycle        197
stall occured

Cycle        198 ----------------------------------------------------

cycle        198
stall occured

Cycle        199 ----------------------------------------------------

cycle        199
stall occured

Cycle        200 ----------------------------------------------------

cycle        200
stall occured

Cycle        201 ----------------------------------------------------

cycle        201
stall occured

Cycle        202 ----------------------------------------------------

cycle        202
stall occured

Cycle        203 ----------------------------------------------------

cycle        203
stall occured

Cycle        204 ----------------------------------------------------

cycle        204
stall occured

Cycle        205 ----------------------------------------------------

cycle        205
stall occured

Cycle        206 ----------------------------------------------------

cycle        206
stall occured

Cycle        207 ----------------------------------------------------

cycle        207
stall occured

Cycle        208 ----------------------------------------------------

cycle        208
stall occured

Cycle        209 ----------------------------------------------------

cycle        209
stall occured

Cycle        210 ----------------------------------------------------

cycle        210
stall occured

Cycle        211 ----------------------------------------------------

cycle        211
stall occured

Cycle        212 ----------------------------------------------------

cycle        212
stall occured

Cycle        213 ----------------------------------------------------

cycle        213
stall occured

Cycle        214 ----------------------------------------------------

cycle        214
stall occured

Cycle        215 ----------------------------------------------------

cycle        215
stall occured

Cycle        216 ----------------------------------------------------

cycle        216
stall occured

Cycle        217 ----------------------------------------------------

cycle        217
stall occured

Cycle        218 ----------------------------------------------------

cycle        218
stall occured

Cycle        219 ----------------------------------------------------

cycle        219
stall occured

Cycle        220 ----------------------------------------------------

cycle        220
stall occured

Cycle        221 ----------------------------------------------------

cycle        221
stall occured

Cycle        222 ----------------------------------------------------

cycle        222
stall occured

Cycle        223 ----------------------------------------------------

cycle        223
stall occured

Cycle        224 ----------------------------------------------------

cycle        224
stall occured

Cycle        225 ----------------------------------------------------

cycle        225
stall occured

Cycle        226 ----------------------------------------------------

cycle        226
stall occured

Cycle        227 ----------------------------------------------------

cycle        227
stall occured

Cycle        228 ----------------------------------------------------

cycle        228
stall occured

Cycle        229 ----------------------------------------------------

cycle        229
stall occured

Cycle        230 ----------------------------------------------------

cycle        230
stall occured

Cycle        231 ----------------------------------------------------

cycle        231
stall occured

Cycle        232 ----------------------------------------------------

cycle        232
stall occured

Cycle        233 ----------------------------------------------------

cycle        233
stall occured

Cycle        234 ----------------------------------------------------

cycle        234
stall occured

Cycle        235 ----------------------------------------------------

cycle        235
stall occured

Cycle        236 ----------------------------------------------------

cycle        236
stall occured

Cycle        237 ----------------------------------------------------

cycle        237
stall occured

Cycle        238 ----------------------------------------------------

cycle        238
stall occured

Cycle        239 ----------------------------------------------------

cycle        239
stall occured

Cycle        240 ----------------------------------------------------

cycle        240
stall occured

Cycle        241 ----------------------------------------------------

cycle        241
stall occured

Cycle        242 ----------------------------------------------------

cycle        242
stall occured

Cycle        243 ----------------------------------------------------

cycle        243
stall occured

Cycle        244 ----------------------------------------------------

cycle        244
stall occured

Cycle        245 ----------------------------------------------------

cycle        245
stall occured

Cycle        246 ----------------------------------------------------

cycle        246
stall occured

Cycle        247 ----------------------------------------------------

cycle        247
stall occured

Cycle        248 ----------------------------------------------------

cycle        248
Mem on pc        200
Store        500 on        480
stall occured

Cycle        249 ----------------------------------------------------

cycle        249
Write Back
WriteE writes        480 on  4
Fetch1
Fetch : from Pc        204 , expanded inst : a03fa06f5035, 
push %3

Cycle        250 ----------------------------------------------------

cycle        250
Exec on pc        202
Fetch1
Fetch : from Pc        206 , expanded inst : a06f50350800, 
push %6

Cycle        251 ----------------------------------------------------

cycle        251
Mem on pc        202
Exec on pc        204
stall occured

Cycle        252 ----------------------------------------------------

cycle        252
Write Back
WriteE writes        480 on  5
stall occured

Cycle        253 ----------------------------------------------------

cycle        253
stall occured

Cycle        254 ----------------------------------------------------

cycle        254
stall occured

Cycle        255 ----------------------------------------------------

cycle        255
stall occured

Cycle        256 ----------------------------------------------------

cycle        256
stall occured

Cycle        257 ----------------------------------------------------

cycle        257
stall occured

Cycle        258 ----------------------------------------------------

cycle        258
stall occured

Cycle        259 ----------------------------------------------------

cycle        259
stall occured

Cycle        260 ----------------------------------------------------

cycle        260
stall occured

Cycle        261 ----------------------------------------------------

cycle        261
stall occured

Cycle        262 ----------------------------------------------------

cycle        262
stall occured

Cycle        263 ----------------------------------------------------

cycle        263
stall occured

Cycle        264 ----------------------------------------------------

cycle        264
stall occured

Cycle        265 ----------------------------------------------------

cycle        265
stall occured

Cycle        266 ----------------------------------------------------

cycle        266
stall occured

Cycle        267 ----------------------------------------------------

cycle        267
stall occured

Cycle        268 ----------------------------------------------------

cycle        268
stall occured

Cycle        269 ----------------------------------------------------

cycle        269
stall occured

Cycle        270 ----------------------------------------------------

cycle        270
stall occured

Cycle        271 ----------------------------------------------------

cycle        271
stall occured

Cycle        272 ----------------------------------------------------

cycle        272
stall occured

Cycle        273 ----------------------------------------------------

cycle        273
stall occured

Cycle        274 ----------------------------------------------------

cycle        274
stall occured

Cycle        275 ----------------------------------------------------

cycle        275
stall occured

Cycle        276 ----------------------------------------------------

cycle        276
stall occured

Cycle        277 ----------------------------------------------------

cycle        277
stall occured

Cycle        278 ----------------------------------------------------

cycle        278
stall occured

Cycle        279 ----------------------------------------------------

cycle        279
stall occured

Cycle        280 ----------------------------------------------------

cycle        280
stall occured

Cycle        281 ----------------------------------------------------

cycle        281
stall occured

Cycle        282 ----------------------------------------------------

cycle        282
stall occured

Cycle        283 ----------------------------------------------------

cycle        283
stall occured

Cycle        284 ----------------------------------------------------

cycle        284
stall occured

Cycle        285 ----------------------------------------------------

cycle        285
stall occured

Cycle        286 ----------------------------------------------------

cycle        286
stall occured

Cycle        287 ----------------------------------------------------

cycle        287
stall occured

Cycle        288 ----------------------------------------------------

cycle        288
stall occured

Cycle        289 ----------------------------------------------------

cycle        289
stall occured

Cycle        290 ----------------------------------------------------

cycle        290
stall occured

Cycle        291 ----------------------------------------------------

cycle        291
stall occured

Cycle        292 ----------------------------------------------------

cycle        292
stall occured

Cycle        293 ----------------------------------------------------

cycle        293
stall occured

Cycle        294 ----------------------------------------------------

cycle        294
stall occured

Cycle        295 ----------------------------------------------------

cycle        295
stall occured

Cycle        296 ----------------------------------------------------

cycle        296
stall occured

Cycle        297 ----------------------------------------------------

cycle        297
stall occured

Cycle        298 ----------------------------------------------------

cycle        298
stall occured

Cycle        299 ----------------------------------------------------

cycle        299
stall occured

Cycle        300 ----------------------------------------------------

cycle        300
stall occured

Cycle        301 ----------------------------------------------------

cycle        301
stall occured

Cycle        302 ----------------------------------------------------

cycle        302
stall occured

Cycle        303 ----------------------------------------------------

cycle        303
stall occured

Cycle        304 ----------------------------------------------------

cycle        304
stall occured

Cycle        305 ----------------------------------------------------

cycle        305
stall occured

Cycle        306 ----------------------------------------------------

cycle        306
stall occured

Cycle        307 ----------------------------------------------------

cycle        307
stall occured

Cycle        308 ----------------------------------------------------

cycle        308
stall occured

Cycle        309 ----------------------------------------------------

cycle        309
stall occured

Cycle        310 ----------------------------------------------------

cycle        310
stall occured

Cycle        311 ----------------------------------------------------

cycle        311
stall occured

Cycle        312 ----------------------------------------------------

cycle        312
stall occured

Cycle        313 ----------------------------------------------------

cycle        313
stall occured

Cycle        314 ----------------------------------------------------

cycle        314
stall occured

Cycle        315 ----------------------------------------------------

cycle        315
stall occured

Cycle        316 ----------------------------------------------------

cycle        316
stall occured

Cycle        317 ----------------------------------------------------

cycle        317
stall occured

Cycle        318 ----------------------------------------------------

cycle        318
stall occured

Cycle        319 ----------------------------------------------------

cycle        319
stall occured

Cycle        320 ----------------------------------------------------

cycle        320
stall occured

Cycle        321 ----------------------------------------------------

cycle        321
stall occured

Cycle        322 ----------------------------------------------------

cycle        322
stall occured

Cycle        323 ----------------------------------------------------

cycle        323
stall occured

Cycle        324 ----------------------------------------------------

cycle        324
stall occured

Cycle        325 ----------------------------------------------------

cycle        325
stall occured

Cycle        326 ----------------------------------------------------

cycle        326
stall occured

Cycle        327 ----------------------------------------------------

cycle        327
stall occured

Cycle        328 ----------------------------------------------------

cycle        328
stall occured

Cycle        329 ----------------------------------------------------

cycle        329
stall occured

Cycle        330 ----------------------------------------------------

cycle        330
stall occured

Cycle        331 ----------------------------------------------------

cycle        331
stall occured

Cycle        332 ----------------------------------------------------

cycle        332
stall occured

Cycle        333 ----------------------------------------------------

cycle        333
stall occured

Cycle        334 ----------------------------------------------------

cycle        334
stall occured

Cycle        335 ----------------------------------------------------

cycle        335
stall occured

Cycle        336 ----------------------------------------------------

cycle        336
stall occured

Cycle        337 ----------------------------------------------------

cycle        337
stall occured

Cycle        338 ----------------------------------------------------

cycle        338
stall occured

Cycle        339 ----------------------------------------------------

cycle        339
stall occured

Cycle        340 ----------------------------------------------------

cycle        340
stall occured

Cycle        341 ----------------------------------------------------

cycle        341
stall occured

Cycle        342 ----------------------------------------------------

cycle        342
stall occured

Cycle        343 ----------------------------------------------------

cycle        343
stall occured

Cycle        344 ----------------------------------------------------

cycle        344
stall occured

Cycle        345 ----------------------------------------------------

cycle        345
stall occured

Cycle        346 ----------------------------------------------------

cycle        346
stall occured

Cycle        347 ----------------------------------------------------

cycle        347
stall occured

Cycle        348 ----------------------------------------------------

cycle        348
stall occured

Cycle        349 ----------------------------------------------------

cycle        349
stall occured

Cycle        350 ----------------------------------------------------

cycle        350
stall occured

Cycle        351 ----------------------------------------------------

cycle        351
Mem on pc        204
Store          0 on        476
stall occured

Cycle        352 ----------------------------------------------------

cycle        352
Write Back
WriteE writes        476 on  4
Fetch1
Fetch : from Pc        208 , expanded inst : 503508000000, 
mrmovl 00000008(%5), %3

Cycle        353 ----------------------------------------------------

cycle        353
Exec on pc        206
Fetch1
Fetch : from Pc        214 , expanded inst : 630062337101, 
xorl %0, %0

Cycle        354 ----------------------------------------------------

cycle        354

Cycle        355 ----------------------------------------------------

cycle        355

Cycle        356 ----------------------------------------------------

cycle        356

Cycle        357 ----------------------------------------------------

cycle        357

Cycle        358 ----------------------------------------------------

cycle        358

Cycle        359 ----------------------------------------------------

cycle        359

Cycle        360 ----------------------------------------------------

cycle        360

Cycle        361 ----------------------------------------------------

cycle        361

Cycle        362 ----------------------------------------------------

cycle        362

Cycle        363 ----------------------------------------------------

cycle        363

Cycle        364 ----------------------------------------------------

cycle        364

Cycle        365 ----------------------------------------------------

cycle        365

Cycle        366 ----------------------------------------------------

cycle        366

Cycle        367 ----------------------------------------------------

cycle        367

Cycle        368 ----------------------------------------------------

cycle        368

Cycle        369 ----------------------------------------------------

cycle        369

Cycle        370 ----------------------------------------------------

cycle        370

Cycle        371 ----------------------------------------------------

cycle        371

Cycle        372 ----------------------------------------------------

cycle        372

Cycle        373 ----------------------------------------------------

cycle        373

Cycle        374 ----------------------------------------------------

cycle        374

Cycle        375 ----------------------------------------------------

cycle        375

Cycle        376 ----------------------------------------------------

cycle        376

Cycle        377 ----------------------------------------------------

cycle        377

Cycle        378 ----------------------------------------------------

cycle        378

Cycle        379 ----------------------------------------------------

cycle        379

Cycle        380 ----------------------------------------------------

cycle        380

Cycle        381 ----------------------------------------------------

cycle        381

Cycle        382 ----------------------------------------------------

cycle        382

Cycle        383 ----------------------------------------------------

cycle        383

Cycle        384 ----------------------------------------------------

cycle        384

Cycle        385 ----------------------------------------------------

cycle        385

Cycle        386 ----------------------------------------------------

cycle        386

Cycle        387 ----------------------------------------------------

cycle        387

Cycle        388 ----------------------------------------------------

cycle        388

Cycle        389 ----------------------------------------------------

cycle        389

Cycle        390 ----------------------------------------------------

cycle        390

Cycle        391 ----------------------------------------------------

cycle        391

Cycle        392 ----------------------------------------------------

cycle        392

Cycle        393 ----------------------------------------------------

cycle        393

Cycle        394 ----------------------------------------------------

cycle        394

Cycle        395 ----------------------------------------------------

cycle        395

Cycle        396 ----------------------------------------------------

cycle        396

Cycle        397 ----------------------------------------------------

cycle        397

Cycle        398 ----------------------------------------------------

cycle        398

Cycle        399 ----------------------------------------------------

cycle        399

Cycle        400 ----------------------------------------------------

cycle        400

Cycle        401 ----------------------------------------------------

cycle        401

Cycle        402 ----------------------------------------------------

cycle        402

Cycle        403 ----------------------------------------------------

cycle        403

Cycle        404 ----------------------------------------------------

cycle        404

Cycle        405 ----------------------------------------------------

cycle        405

Cycle        406 ----------------------------------------------------

cycle        406

Cycle        407 ----------------------------------------------------

cycle        407

Cycle        408 ----------------------------------------------------

cycle        408

Cycle        409 ----------------------------------------------------

cycle        409

Cycle        410 ----------------------------------------------------

cycle        410

Cycle        411 ----------------------------------------------------

cycle        411

Cycle        412 ----------------------------------------------------

cycle        412

Cycle        413 ----------------------------------------------------

cycle        413

Cycle        414 ----------------------------------------------------

cycle        414

Cycle        415 ----------------------------------------------------

cycle        415

Cycle        416 ----------------------------------------------------

cycle        416

Cycle        417 ----------------------------------------------------

cycle        417

Cycle        418 ----------------------------------------------------

cycle        418

Cycle        419 ----------------------------------------------------

cycle        419

Cycle        420 ----------------------------------------------------

cycle        420

Cycle        421 ----------------------------------------------------

cycle        421

Cycle        422 ----------------------------------------------------

cycle        422

Cycle        423 ----------------------------------------------------

cycle        423

Cycle        424 ----------------------------------------------------

cycle        424

Cycle        425 ----------------------------------------------------

cycle        425

Cycle        426 ----------------------------------------------------

cycle        426

Cycle        427 ----------------------------------------------------

cycle        427

Cycle        428 ----------------------------------------------------

cycle        428

Cycle        429 ----------------------------------------------------

cycle        429

Cycle        430 ----------------------------------------------------

cycle        430

Cycle        431 ----------------------------------------------------

cycle        431

Cycle        432 ----------------------------------------------------

cycle        432

Cycle        433 ----------------------------------------------------

cycle        433

Cycle        434 ----------------------------------------------------

cycle        434

Cycle        435 ----------------------------------------------------

cycle        435

Cycle        436 ----------------------------------------------------

cycle        436

Cycle        437 ----------------------------------------------------

cycle        437

Cycle        438 ----------------------------------------------------

cycle        438

Cycle        439 ----------------------------------------------------

cycle        439

Cycle        440 ----------------------------------------------------

cycle        440

Cycle        441 ----------------------------------------------------

cycle        441

Cycle        442 ----------------------------------------------------

cycle        442

Cycle        443 ----------------------------------------------------

cycle        443

Cycle        444 ----------------------------------------------------

cycle        444

Cycle        445 ----------------------------------------------------

cycle        445

Cycle        446 ----------------------------------------------------

cycle        446

Cycle        447 ----------------------------------------------------

cycle        447

Cycle        448 ----------------------------------------------------

cycle        448

Cycle        449 ----------------------------------------------------

cycle        449

Cycle        450 ----------------------------------------------------

cycle        450

Cycle        451 ----------------------------------------------------

cycle        451

Cycle        452 ----------------------------------------------------

cycle        452

Cycle        453 ----------------------------------------------------

cycle        453

Cycle        454 ----------------------------------------------------

cycle        454
Mem on pc        206
Store          0 on        472
Exec on pc        208
Fetch1
Fetch : from Pc        216 , expanded inst : 623371010100, 
andl %3, %3

Cycle        455 ----------------------------------------------------

cycle        455
Mem on pc        208
Exec on pc        214
Write Back
WriteE writes        472 on  4
stall occured

Cycle        456 ----------------------------------------------------

cycle        456
stall occured

Cycle        457 ----------------------------------------------------

cycle        457
stall occured

Cycle        458 ----------------------------------------------------

cycle        458
stall occured

Cycle        459 ----------------------------------------------------

cycle        459
stall occured

Cycle        460 ----------------------------------------------------

cycle        460
stall occured

Cycle        461 ----------------------------------------------------

cycle        461
stall occured

Cycle        462 ----------------------------------------------------

cycle        462
stall occured

Cycle        463 ----------------------------------------------------

cycle        463
stall occured

Cycle        464 ----------------------------------------------------

cycle        464
stall occured

Cycle        465 ----------------------------------------------------

cycle        465
stall occured

Cycle        466 ----------------------------------------------------

cycle        466
stall occured

Cycle        467 ----------------------------------------------------

cycle        467
stall occured

Cycle        468 ----------------------------------------------------

cycle        468
stall occured

Cycle        469 ----------------------------------------------------

cycle        469
stall occured

Cycle        470 ----------------------------------------------------

cycle        470
stall occured

Cycle        471 ----------------------------------------------------

cycle        471
stall occured

Cycle        472 ----------------------------------------------------

cycle        472
stall occured

Cycle        473 ----------------------------------------------------

cycle        473
stall occured

Cycle        474 ----------------------------------------------------

cycle        474
stall occured

Cycle        475 ----------------------------------------------------

cycle        475
stall occured

Cycle        476 ----------------------------------------------------

cycle        476
stall occured

Cycle        477 ----------------------------------------------------

cycle        477
stall occured

Cycle        478 ----------------------------------------------------

cycle        478
stall occured

Cycle        479 ----------------------------------------------------

cycle        479
stall occured

Cycle        480 ----------------------------------------------------

cycle        480
stall occured

Cycle        481 ----------------------------------------------------

cycle        481
stall occured

Cycle        482 ----------------------------------------------------

cycle        482
stall occured

Cycle        483 ----------------------------------------------------

cycle        483
stall occured

Cycle        484 ----------------------------------------------------

cycle        484
stall occured

Cycle        485 ----------------------------------------------------

cycle        485
stall occured

Cycle        486 ----------------------------------------------------

cycle        486
stall occured

Cycle        487 ----------------------------------------------------

cycle        487
stall occured

Cycle        488 ----------------------------------------------------

cycle        488
stall occured

Cycle        489 ----------------------------------------------------

cycle        489
stall occured

Cycle        490 ----------------------------------------------------

cycle        490
stall occured

Cycle        491 ----------------------------------------------------

cycle        491
stall occured

Cycle        492 ----------------------------------------------------

cycle        492
stall occured

Cycle        493 ----------------------------------------------------

cycle        493
stall occured

Cycle        494 ----------------------------------------------------

cycle        494
stall occured

Cycle        495 ----------------------------------------------------

cycle        495
stall occured

Cycle        496 ----------------------------------------------------

cycle        496
stall occured

Cycle        497 ----------------------------------------------------

cycle        497
stall occured

Cycle        498 ----------------------------------------------------

cycle        498
stall occured

Cycle        499 ----------------------------------------------------

cycle        499
stall occured

Cycle        500 ----------------------------------------------------

cycle        500
stall occured

Cycle        501 ----------------------------------------------------

cycle        501
stall occured

Cycle        502 ----------------------------------------------------

cycle        502
stall occured

Cycle        503 ----------------------------------------------------

cycle        503
stall occured

Cycle        504 ----------------------------------------------------

cycle        504
stall occured

Cycle        505 ----------------------------------------------------

cycle        505
stall occured

Cycle        506 ----------------------------------------------------

cycle        506
stall occured

Cycle        507 ----------------------------------------------------

cycle        507
stall occured

Cycle        508 ----------------------------------------------------

cycle        508
stall occured

Cycle        509 ----------------------------------------------------

cycle        509
stall occured

Cycle        510 ----------------------------------------------------

cycle        510
stall occured

Cycle        511 ----------------------------------------------------

cycle        511
stall occured

Cycle        512 ----------------------------------------------------

cycle        512
stall occured

Cycle        513 ----------------------------------------------------

cycle        513
stall occured

Cycle        514 ----------------------------------------------------

cycle        514
stall occured

Cycle        515 ----------------------------------------------------

cycle        515
stall occured

Cycle        516 ----------------------------------------------------

cycle        516
stall occured

Cycle        517 ----------------------------------------------------

cycle        517
stall occured

Cycle        518 ----------------------------------------------------

cycle        518
stall occured

Cycle        519 ----------------------------------------------------

cycle        519
stall occured

Cycle        520 ----------------------------------------------------

cycle        520
stall occured

Cycle        521 ----------------------------------------------------

cycle        521
stall occured

Cycle        522 ----------------------------------------------------

cycle        522
stall occured

Cycle        523 ----------------------------------------------------

cycle        523
stall occured

Cycle        524 ----------------------------------------------------

cycle        524
stall occured

Cycle        525 ----------------------------------------------------

cycle        525
stall occured

Cycle        526 ----------------------------------------------------

cycle        526
stall occured

Cycle        527 ----------------------------------------------------

cycle        527
stall occured

Cycle        528 ----------------------------------------------------

cycle        528
stall occured

Cycle        529 ----------------------------------------------------

cycle        529
stall occured

Cycle        530 ----------------------------------------------------

cycle        530
stall occured

Cycle        531 ----------------------------------------------------

cycle        531
stall occured

Cycle        532 ----------------------------------------------------

cycle        532
stall occured

Cycle        533 ----------------------------------------------------

cycle        533
stall occured

Cycle        534 ----------------------------------------------------

cycle        534
stall occured

Cycle        535 ----------------------------------------------------

cycle        535
stall occured

Cycle        536 ----------------------------------------------------

cycle        536
stall occured

Cycle        537 ----------------------------------------------------

cycle        537
stall occured

Cycle        538 ----------------------------------------------------

cycle        538
stall occured

Cycle        539 ----------------------------------------------------

cycle        539
stall occured

Cycle        540 ----------------------------------------------------

cycle        540
stall occured

Cycle        541 ----------------------------------------------------

cycle        541
stall occured

Cycle        542 ----------------------------------------------------

cycle        542
stall occured

Cycle        543 ----------------------------------------------------

cycle        543
stall occured

Cycle        544 ----------------------------------------------------

cycle        544
stall occured

Cycle        545 ----------------------------------------------------

cycle        545
stall occured

Cycle        546 ----------------------------------------------------

cycle        546
stall occured

Cycle        547 ----------------------------------------------------

cycle        547
stall occured

Cycle        548 ----------------------------------------------------

cycle        548
stall occured

Cycle        549 ----------------------------------------------------

cycle        549
stall occured

Cycle        550 ----------------------------------------------------

cycle        550
stall occured

Cycle        551 ----------------------------------------------------

cycle        551
stall occured

Cycle        552 ----------------------------------------------------

cycle        552
stall occured

Cycle        553 ----------------------------------------------------

cycle        553
stall occured

Cycle        554 ----------------------------------------------------

cycle        554
stall occured

Cycle        555 ----------------------------------------------------

cycle        555
stall occured

Cycle        556 ----------------------------------------------------

cycle        556
stall occured

Cycle        557 ----------------------------------------------------

cycle        557
stall occured

Cycle        558 ----------------------------------------------------

cycle        558
stall occured

Cycle        559 ----------------------------------------------------

cycle        559
stall occured

Cycle        560 ----------------------------------------------------

cycle        560
stall occured

Cycle        561 ----------------------------------------------------

cycle        561
stall occured

Cycle        562 ----------------------------------------------------

cycle        562
stall occured

Cycle        563 ----------------------------------------------------

cycle        563
stall occured

Cycle        564 ----------------------------------------------------

cycle        564
stall occured

Cycle        565 ----------------------------------------------------

cycle        565
stall occured

Cycle        566 ----------------------------------------------------

cycle        566
stall occured

Cycle        567 ----------------------------------------------------

cycle        567
stall occured

Cycle        568 ----------------------------------------------------

cycle        568
stall occured

Cycle        569 ----------------------------------------------------

cycle        569
stall occured

Cycle        570 ----------------------------------------------------

cycle        570
stall occured

Cycle        571 ----------------------------------------------------

cycle        571
stall occured

Cycle        572 ----------------------------------------------------

cycle        572
stall occured

Cycle        573 ----------------------------------------------------

cycle        573
stall occured

Cycle        574 ----------------------------------------------------

cycle        574
stall occured

Cycle        575 ----------------------------------------------------

cycle        575
stall occured

Cycle        576 ----------------------------------------------------

cycle        576
stall occured

Cycle        577 ----------------------------------------------------

cycle        577
stall occured

Cycle        578 ----------------------------------------------------

cycle        578
stall occured

Cycle        579 ----------------------------------------------------

cycle        579
stall occured

Cycle        580 ----------------------------------------------------

cycle        580
stall occured

Cycle        581 ----------------------------------------------------

cycle        581
stall occured

Cycle        582 ----------------------------------------------------

cycle        582
stall occured

Cycle        583 ----------------------------------------------------

cycle        583
stall occured

Cycle        584 ----------------------------------------------------

cycle        584
stall occured

Cycle        585 ----------------------------------------------------

cycle        585
stall occured

Cycle        586 ----------------------------------------------------

cycle        586
stall occured

Cycle        587 ----------------------------------------------------

cycle        587
stall occured

Cycle        588 ----------------------------------------------------

cycle        588
stall occured

Cycle        589 ----------------------------------------------------

cycle        589
stall occured

Cycle        590 ----------------------------------------------------

cycle        590
stall occured

Cycle        591 ----------------------------------------------------

cycle        591
stall occured

Cycle        592 ----------------------------------------------------

cycle        592
stall occured

Cycle        593 ----------------------------------------------------

cycle        593
stall occured

Cycle        594 ----------------------------------------------------

cycle        594
stall occured

Cycle        595 ----------------------------------------------------

cycle        595
stall occured

Cycle        596 ----------------------------------------------------

cycle        596
stall occured

Cycle        597 ----------------------------------------------------

cycle        597
stall occured

Cycle        598 ----------------------------------------------------

cycle        598
stall occured

Cycle        599 ----------------------------------------------------

cycle        599
stall occured

Cycle        600 ----------------------------------------------------

cycle        600
stall occured

Cycle        601 ----------------------------------------------------

cycle        601
stall occured

Cycle        602 ----------------------------------------------------

cycle        602
stall occured

Cycle        603 ----------------------------------------------------

cycle        603
stall occured

Cycle        604 ----------------------------------------------------

cycle        604
stall occured

Cycle        605 ----------------------------------------------------

cycle        605
stall occured

Cycle        606 ----------------------------------------------------

cycle        606
stall occured

Cycle        607 ----------------------------------------------------

cycle        607
stall occured

Cycle        608 ----------------------------------------------------

cycle        608
stall occured

Cycle        609 ----------------------------------------------------

cycle        609
stall occured

Cycle        610 ----------------------------------------------------

cycle        610
stall occured

Cycle        611 ----------------------------------------------------

cycle        611
stall occured

Cycle        612 ----------------------------------------------------

cycle        612
stall occured

Cycle        613 ----------------------------------------------------

cycle        613
stall occured

Cycle        614 ----------------------------------------------------

cycle        614
stall occured

Cycle        615 ----------------------------------------------------

cycle        615
stall occured

Cycle        616 ----------------------------------------------------

cycle        616
stall occured

Cycle        617 ----------------------------------------------------

cycle        617
stall occured

Cycle        618 ----------------------------------------------------

cycle        618
stall occured

Cycle        619 ----------------------------------------------------

cycle        619
stall occured

Cycle        620 ----------------------------------------------------

cycle        620
stall occured

Cycle        621 ----------------------------------------------------

cycle        621
stall occured

Cycle        622 ----------------------------------------------------

cycle        622
stall occured

Cycle        623 ----------------------------------------------------

cycle        623
stall occured

Cycle        624 ----------------------------------------------------

cycle        624
stall occured

Cycle        625 ----------------------------------------------------

cycle        625
stall occured

Cycle        626 ----------------------------------------------------

cycle        626
stall occured

Cycle        627 ----------------------------------------------------

cycle        627
stall occured

Cycle        628 ----------------------------------------------------

cycle        628
stall occured

Cycle        629 ----------------------------------------------------

cycle        629
stall occured

Cycle        630 ----------------------------------------------------

cycle        630
stall occured

Cycle        631 ----------------------------------------------------

cycle        631
stall occured

Cycle        632 ----------------------------------------------------

cycle        632
stall occured

Cycle        633 ----------------------------------------------------

cycle        633
stall occured

Cycle        634 ----------------------------------------------------

cycle        634
stall occured

Cycle        635 ----------------------------------------------------

cycle        635
stall occured

Cycle        636 ----------------------------------------------------

cycle        636
stall occured

Cycle        637 ----------------------------------------------------

cycle        637
stall occured

Cycle        638 ----------------------------------------------------

cycle        638
stall occured

Cycle        639 ----------------------------------------------------

cycle        639
stall occured

Cycle        640 ----------------------------------------------------

cycle        640
stall occured

Cycle        641 ----------------------------------------------------

cycle        641
stall occured

Cycle        642 ----------------------------------------------------

cycle        642
stall occured

Cycle        643 ----------------------------------------------------

cycle        643
stall occured

Cycle        644 ----------------------------------------------------

cycle        644
stall occured

Cycle        645 ----------------------------------------------------

cycle        645
stall occured

Cycle        646 ----------------------------------------------------

cycle        646
stall occured

Cycle        647 ----------------------------------------------------

cycle        647
stall occured

Cycle        648 ----------------------------------------------------

cycle        648
stall occured

Cycle        649 ----------------------------------------------------

cycle        649
stall occured

Cycle        650 ----------------------------------------------------

cycle        650
stall occured

Cycle        651 ----------------------------------------------------

cycle        651
stall occured

Cycle        652 ----------------------------------------------------

cycle        652
stall occured

Cycle        653 ----------------------------------------------------

cycle        653
stall occured

Cycle        654 ----------------------------------------------------

cycle        654
stall occured

Cycle        655 ----------------------------------------------------

cycle        655
stall occured

Cycle        656 ----------------------------------------------------

cycle        656
stall occured

Cycle        657 ----------------------------------------------------

cycle        657
stall occured

Cycle        658 ----------------------------------------------------

cycle        658
stall occured

Cycle        659 ----------------------------------------------------

cycle        659
stall occured

Cycle        660 ----------------------------------------------------

cycle        660
stall occured

Cycle        661 ----------------------------------------------------

cycle        661
stall occured

Cycle        662 ----------------------------------------------------

cycle        662
stall occured

Cycle        663 ----------------------------------------------------

cycle        663
stall occured

Cycle        664 ----------------------------------------------------

cycle        664
stall occured

Cycle        665 ----------------------------------------------------

cycle        665
stall occured

Cycle        666 ----------------------------------------------------

cycle        666
stall occured

Cycle        667 ----------------------------------------------------

cycle        667
stall occured

Cycle        668 ----------------------------------------------------

cycle        668
stall occured

Cycle        669 ----------------------------------------------------

cycle        669
stall occured

Cycle        670 ----------------------------------------------------

cycle        670
stall occured

Cycle        671 ----------------------------------------------------

cycle        671
stall occured

Cycle        672 ----------------------------------------------------

cycle        672
stall occured

Cycle        673 ----------------------------------------------------

cycle        673
stall occured

Cycle        674 ----------------------------------------------------

cycle        674
stall occured

Cycle        675 ----------------------------------------------------

cycle        675
stall occured

Cycle        676 ----------------------------------------------------

cycle        676
stall occured

Cycle        677 ----------------------------------------------------

cycle        677
stall occured

Cycle        678 ----------------------------------------------------

cycle        678
stall occured

Cycle        679 ----------------------------------------------------

cycle        679
stall occured

Cycle        680 ----------------------------------------------------

cycle        680
stall occured

Cycle        681 ----------------------------------------------------

cycle        681
stall occured

Cycle        682 ----------------------------------------------------

cycle        682
stall occured

Cycle        683 ----------------------------------------------------

cycle        683
stall occured

Cycle        684 ----------------------------------------------------

cycle        684
stall occured

Cycle        685 ----------------------------------------------------

cycle        685
stall occured

Cycle        686 ----------------------------------------------------

cycle        686
stall occured

Cycle        687 ----------------------------------------------------

cycle        687
stall occured

Cycle        688 ----------------------------------------------------

cycle        688
stall occured

Cycle        689 ----------------------------------------------------

cycle        689
stall occured

Cycle        690 ----------------------------------------------------

cycle        690
stall occured

Cycle        691 ----------------------------------------------------

cycle        691
stall occured

Cycle        692 ----------------------------------------------------

cycle        692
stall occured

Cycle        693 ----------------------------------------------------

cycle        693
stall occured

Cycle        694 ----------------------------------------------------

cycle        694
stall occured

Cycle        695 ----------------------------------------------------

cycle        695
stall occured

Cycle        696 ----------------------------------------------------

cycle        696
stall occured

Cycle        697 ----------------------------------------------------

cycle        697
stall occured

Cycle        698 ----------------------------------------------------

cycle        698
stall occured

Cycle        699 ----------------------------------------------------

cycle        699
stall occured

Cycle        700 ----------------------------------------------------

cycle        700
stall occured

Cycle        701 ----------------------------------------------------

cycle        701
stall occured

Cycle        702 ----------------------------------------------------

cycle        702
stall occured

Cycle        703 ----------------------------------------------------

cycle        703
stall occured

Cycle        704 ----------------------------------------------------

cycle        704
stall occured

Cycle        705 ----------------------------------------------------

cycle        705
stall occured

Cycle        706 ----------------------------------------------------

cycle        706
stall occured

Cycle        707 ----------------------------------------------------

cycle        707
stall occured

Cycle        708 ----------------------------------------------------

cycle        708
stall occured

Cycle        709 ----------------------------------------------------

cycle        709
stall occured

Cycle        710 ----------------------------------------------------

cycle        710
stall occured

Cycle        711 ----------------------------------------------------

cycle        711
stall occured

Cycle        712 ----------------------------------------------------

cycle        712
stall occured

Cycle        713 ----------------------------------------------------

cycle        713
stall occured

Cycle        714 ----------------------------------------------------

cycle        714
stall occured

Cycle        715 ----------------------------------------------------

cycle        715
stall occured

Cycle        716 ----------------------------------------------------

cycle        716
stall occured

Cycle        717 ----------------------------------------------------

cycle        717
stall occured

Cycle        718 ----------------------------------------------------

cycle        718
stall occured

Cycle        719 ----------------------------------------------------

cycle        719
stall occured

Cycle        720 ----------------------------------------------------

cycle        720
stall occured

Cycle        721 ----------------------------------------------------

cycle        721
stall occured

Cycle        722 ----------------------------------------------------

cycle        722
stall occured

Cycle        723 ----------------------------------------------------

cycle        723
stall occured

Cycle        724 ----------------------------------------------------

cycle        724
stall occured

Cycle        725 ----------------------------------------------------

cycle        725
stall occured

Cycle        726 ----------------------------------------------------

cycle        726
stall occured

Cycle        727 ----------------------------------------------------

cycle        727
stall occured

Cycle        728 ----------------------------------------------------

cycle        728
stall occured

Cycle        729 ----------------------------------------------------

cycle        729
stall occured

Cycle        730 ----------------------------------------------------

cycle        730
stall occured

Cycle        731 ----------------------------------------------------

cycle        731
stall occured

Cycle        732 ----------------------------------------------------

cycle        732
stall occured

Cycle        733 ----------------------------------------------------

cycle        733
stall occured

Cycle        734 ----------------------------------------------------

cycle        734
stall occured

Cycle        735 ----------------------------------------------------

cycle        735
stall occured

Cycle        736 ----------------------------------------------------

cycle        736
stall occured

Cycle        737 ----------------------------------------------------

cycle        737
stall occured

Cycle        738 ----------------------------------------------------

cycle        738
stall occured

Cycle        739 ----------------------------------------------------

cycle        739
stall occured

Cycle        740 ----------------------------------------------------

cycle        740
stall occured

Cycle        741 ----------------------------------------------------

cycle        741
stall occured

Cycle        742 ----------------------------------------------------

cycle        742
stall occured

Cycle        743 ----------------------------------------------------

cycle        743
stall occured

Cycle        744 ----------------------------------------------------

cycle        744
stall occured

Cycle        745 ----------------------------------------------------

cycle        745
stall occured

Cycle        746 ----------------------------------------------------

cycle        746
stall occured

Cycle        747 ----------------------------------------------------

cycle        747
stall occured

Cycle        748 ----------------------------------------------------

cycle        748
stall occured

Cycle        749 ----------------------------------------------------

cycle        749
stall occured

Cycle        750 ----------------------------------------------------

cycle        750
stall occured

Cycle        751 ----------------------------------------------------

cycle        751
stall occured

Cycle        752 ----------------------------------------------------

cycle        752
stall occured

Cycle        753 ----------------------------------------------------

cycle        753
stall occured

Cycle        754 ----------------------------------------------------

cycle        754
stall occured

Cycle        755 ----------------------------------------------------

cycle        755
[...]

cycle      14068
stall occured

Cycle      14069 ----------------------------------------------------

cycle      14069
stall occured

Cycle      14070 ----------------------------------------------------

cycle      14070
stall occured

Cycle      14071 ----------------------------------------------------

cycle      14071
stall occured

Cycle      14072 ----------------------------------------------------

cycle      14072
stall occured

Cycle      14073 ----------------------------------------------------

cycle      14073
stall occured

Cycle      14074 ----------------------------------------------------

cycle      14074
stall occured

Cycle      14075 ----------------------------------------------------

cycle      14075
stall occured

Cycle      14076 ----------------------------------------------------

cycle      14076
stall occured

Cycle      14077 ----------------------------------------------------

cycle      14077
stall occured

Cycle      14078 ----------------------------------------------------

cycle      14078
stall occured

Cycle      14079 ----------------------------------------------------

cycle      14079
stall occured

Cycle      14080 ----------------------------------------------------

cycle      14080
stall occured

Cycle      14081 ----------------------------------------------------

cycle      14081
stall occured

Cycle      14082 ----------------------------------------------------

cycle      14082
stall occured

Cycle      14083 ----------------------------------------------------

cycle      14083
stall occured

Cycle      14084 ----------------------------------------------------

cycle      14084
stall occured

Cycle      14085 ----------------------------------------------------

cycle      14085
stall occured

Cycle      14086 ----------------------------------------------------

cycle      14086
stall occured

Cycle      14087 ----------------------------------------------------

cycle      14087
stall occured

Cycle      14088 ----------------------------------------------------

cycle      14088
stall occured

Cycle      14089 ----------------------------------------------------

cycle      14089
stall occured

Cycle      14090 ----------------------------------------------------

cycle      14090
stall occured

Cycle      14091 ----------------------------------------------------

cycle      14091
stall occured

Cycle      14092 ----------------------------------------------------

cycle      14092
stall occured

Cycle      14093 ----------------------------------------------------

cycle      14093
stall occured

Cycle      14094 ----------------------------------------------------

cycle      14094
stall occured

Cycle      14095 ----------------------------------------------------

cycle      14095
stall occured

Cycle      14096 ----------------------------------------------------

cycle      14096
stall occured

Cycle      14097 ----------------------------------------------------

cycle      14097
stall occured

Cycle      14098 ----------------------------------------------------

cycle      14098
stall occured

Cycle      14099 ----------------------------------------------------

cycle      14099
stall occured

Cycle      14100 ----------------------------------------------------

cycle      14100
stall occured

Cycle      14101 ----------------------------------------------------

cycle      14101
stall occured

Cycle      14102 ----------------------------------------------------

cycle      14102
stall occured

Cycle      14103 ----------------------------------------------------

cycle      14103
stall occured

Cycle      14104 ----------------------------------------------------

cycle      14104
stall occured

Cycle      14105 ----------------------------------------------------

cycle      14105
stall occured

Cycle      14106 ----------------------------------------------------

cycle      14106
stall occured

Cycle      14107 ----------------------------------------------------

cycle      14107
stall occured

Cycle      14108 ----------------------------------------------------

cycle      14108
stall occured

Cycle      14109 ----------------------------------------------------

cycle      14109
stall occured

Cycle      14110 ----------------------------------------------------

cycle      14110
stall occured

Cycle      14111 ----------------------------------------------------

cycle      14111
stall occured

Cycle      14112 ----------------------------------------------------

cycle      14112
stall occured

Cycle      14113 ----------------------------------------------------

cycle      14113
stall occured

Cycle      14114 ----------------------------------------------------

cycle      14114
stall occured

Cycle      14115 ----------------------------------------------------

cycle      14115
stall occured

Cycle      14116 ----------------------------------------------------

cycle      14116
stall occured

Cycle      14117 ----------------------------------------------------

cycle      14117
stall occured

Cycle      14118 ----------------------------------------------------

cycle      14118
stall occured

Cycle      14119 ----------------------------------------------------

cycle      14119
stall occured

Cycle      14120 ----------------------------------------------------

cycle      14120
stall occured

Cycle      14121 ----------------------------------------------------

cycle      14121
stall occured

Cycle      14122 ----------------------------------------------------

cycle      14122
stall occured

Cycle      14123 ----------------------------------------------------

cycle      14123
stall occured

Cycle      14124 ----------------------------------------------------

cycle      14124
stall occured

Cycle      14125 ----------------------------------------------------

cycle      14125
stall occured

Cycle      14126 ----------------------------------------------------

cycle      14126
stall occured

Cycle      14127 ----------------------------------------------------

cycle      14127
stall occured

Cycle      14128 ----------------------------------------------------

cycle      14128
stall occured

Cycle      14129 ----------------------------------------------------

cycle      14129
stall occured

Cycle      14130 ----------------------------------------------------

cycle      14130
stall occured

Cycle      14131 ----------------------------------------------------

cycle      14131
stall occured

Cycle      14132 ----------------------------------------------------

cycle      14132
stall occured

Cycle      14133 ----------------------------------------------------

cycle      14133
stall occured

Cycle      14134 ----------------------------------------------------

cycle      14134
stall occured

Cycle      14135 ----------------------------------------------------

cycle      14135
stall occured

Cycle      14136 ----------------------------------------------------

cycle      14136
stall occured

Cycle      14137 ----------------------------------------------------

cycle      14137
stall occured

Cycle      14138 ----------------------------------------------------

cycle      14138
stall occured

Cycle      14139 ----------------------------------------------------

cycle      14139
stall occured

Cycle      14140 ----------------------------------------------------

cycle      14140
stall occured

Cycle      14141 ----------------------------------------------------

cycle      14141
stall occured

Cycle      14142 ----------------------------------------------------

cycle      14142
stall occured

Cycle      14143 ----------------------------------------------------

cycle      14143
stall occured

Cycle      14144 ----------------------------------------------------

cycle      14144
stall occured

Cycle      14145 ----------------------------------------------------

cycle      14145
stall occured

Cycle      14146 ----------------------------------------------------

cycle      14146
stall occured

Cycle      14147 ----------------------------------------------------

cycle      14147
stall occured

Cycle      14148 ----------------------------------------------------

cycle      14148
stall occured

Cycle      14149 ----------------------------------------------------

cycle      14149
stall occured
Loaded       4095 from        128

Cycle      14150 ----------------------------------------------------

cycle      14150
Mem on pc        374
Write Back
WriteM writes       4095 on  6
stall occured
Loaded       4095 from         68

Cycle      14151 ----------------------------------------------------

cycle      14151
Write Back
WriteM writes       4095 on  0
Fetch1
Fetch : from Pc        382 , expanded inst : 749c01000060, 
jne $0000019c

Cycle      14152 ----------------------------------------------------

cycle      14152
Exec on pc        380
Fetch1
Fetch : from Pc        387 , expanded inst : 6071607230f6, 
addl %7, %1

Cycle      14153 ----------------------------------------------------

cycle      14153
Mem on pc        380
Exec on pc        382
Fetch1
Fetch : from Pc        389 , expanded inst : 607230f60100, 
addl %7, %2

Cycle      14154 ----------------------------------------------------

cycle      14154
Mem on pc        382
Exec on pc        387
Write Back
WriteE writes          0 on  0
Fetch1
Fetch : from Pc        391 , expanded inst : 30f601000000, 
irmovl $00000001,  %6

Cycle      14155 ----------------------------------------------------

cycle      14155
Mem on pc        387
Exec on pc        389
Write Back
Fetch1
Fetch : from Pc        397 , expanded inst : 606330f60f00, 
addl %6, %3

Cycle      14156 ----------------------------------------------------

cycle      14156
Mem on pc        389
Exec on pc        391
Write Back
WriteE writes        132 on  1
stall occured

Cycle      14157 ----------------------------------------------------

cycle      14157
Mem on pc        391
Write Back
WriteE writes         72 on  2
stall occured

Cycle      14158 ----------------------------------------------------

cycle      14158
Write Back
WriteE writes          1 on  6
Fetch1
Fetch : from Pc        399 , expanded inst : 30f60f000000, 
irmovl $0000000f,  %6

Cycle      14159 ----------------------------------------------------

cycle      14159
Exec on pc        397
Fetch1
Fetch : from Pc        405 , expanded inst : 613674700100, 
subl %3, %6

Cycle      14160 ----------------------------------------------------

cycle      14160
Mem on pc        397
Exec on pc        399
stall occured

Cycle      14161 ----------------------------------------------------

cycle      14161
Mem on pc        399
Write Back
WriteE writes         13 on  3
stall occured

Cycle      14162 ----------------------------------------------------

cycle      14162
Write Back
WriteE writes         15 on  6
Fetch1
Fetch : from Pc        407 , expanded inst : 7470010000c0, 
jne $00000170

Cycle      14163 ----------------------------------------------------

cycle      14163
Exec on pc        405
Fetch1
Fetch : from Pc        407 , expanded inst : 7470010000c0, 
jne $00000170

Cycle      14164 ----------------------------------------------------

cycle      14164
Mem on pc        405
Exec on pc        407
ExecRedirect : addr        368
Fetch1
Fetch : from Pc        368 , expanded inst : 506100000000, 
mrmovl 00000000(%1), %6

Cycle      14165 ----------------------------------------------------

cycle      14165
Mem on pc        407
Exec : Invalidated on pc        407
Write Back
WriteE writes          2 on  6
Fetch1
Fetch : from Pc        374 , expanded inst : 500200000000, 
mrmovl 00000000(%2), %0

Cycle      14166 ----------------------------------------------------

cycle      14166
Mem invalidated on pc        407
Exec on pc        368
Write Back
Fetch1
Fetch : from Pc        380 , expanded inst : 6160749c0100, 
subl %6, %0

Cycle      14167 ----------------------------------------------------

cycle      14167
Mem on pc        368
Exec on pc        374
Write Back
stall occured
Loaded       8191 from        132

Cycle      14168 ----------------------------------------------------

cycle      14168
Mem on pc        374
Write Back
WriteM writes       8191 on  6
stall occured
Loaded       8191 from         72

Cycle      14169 ----------------------------------------------------

cycle      14169
Write Back
WriteM writes       8191 on  0
Fetch1
Fetch : from Pc        382 , expanded inst : 749c01000060, 
jne $0000019c

Cycle      14170 ----------------------------------------------------

cycle      14170
Exec on pc        380
Fetch1
Fetch : from Pc        387 , expanded inst : 6071607230f6, 
addl %7, %1

Cycle      14171 ----------------------------------------------------

cycle      14171
Mem on pc        380
Exec on pc        382
Fetch1
Fetch : from Pc        389 , expanded inst : 607230f60100, 
addl %7, %2

Cycle      14172 ----------------------------------------------------

cycle      14172
Mem on pc        382
Exec on pc        387
Write Back
WriteE writes          0 on  0
Fetch1
Fetch : from Pc        391 , expanded inst : 30f601000000, 
irmovl $00000001,  %6

Cycle      14173 ----------------------------------------------------

cycle      14173
Mem on pc        387
Exec on pc        389
Write Back
Fetch1
Fetch : from Pc        397 , expanded inst : 606330f60f00, 
addl %6, %3

Cycle      14174 ----------------------------------------------------

cycle      14174
Mem on pc        389
Exec on pc        391
Write Back
WriteE writes        136 on  1
stall occured

Cycle      14175 ----------------------------------------------------

cycle      14175
Mem on pc        391
Write Back
WriteE writes         76 on  2
stall occured

Cycle      14176 ----------------------------------------------------

cycle      14176
Write Back
WriteE writes          1 on  6
Fetch1
Fetch : from Pc        399 , expanded inst : 30f60f000000, 
irmovl $0000000f,  %6

Cycle      14177 ----------------------------------------------------

cycle      14177
Exec on pc        397
Fetch1
Fetch : from Pc        405 , expanded inst : 613674700100, 
subl %3, %6

Cycle      14178 ----------------------------------------------------

cycle      14178
Mem on pc        397
Exec on pc        399
stall occured

Cycle      14179 ----------------------------------------------------

cycle      14179
Mem on pc        399
Write Back
WriteE writes         14 on  3
stall occured

Cycle      14180 ----------------------------------------------------

cycle      14180
Write Back
WriteE writes         15 on  6
Fetch1
Fetch : from Pc        368 , expanded inst : 506100000000, 
mrmovl 00000000(%1), %6

Cycle      14181 ----------------------------------------------------

cycle      14181
Exec on pc        405
ExecRedirect : addr        407
Fetch1
Fetch : from Pc        407 , expanded inst : 7470010000c0, 
jne $00000170

Cycle      14182 ----------------------------------------------------

cycle      14182
Mem on pc        405
Exec : Invalidated on pc        368
Fetch1
Fetch : from Pc        368 , expanded inst : 506100000000, 
mrmovl 00000000(%1), %6

Cycle      14183 ----------------------------------------------------

cycle      14183
Mem invalidated on pc        368
Exec on pc        407
Write Back
WriteE writes          1 on  6
Fetch1
Fetch : from Pc        374 , expanded inst : 500200000000, 
mrmovl 00000000(%2), %0

Cycle      14184 ----------------------------------------------------

cycle      14184
Mem on pc        407
Exec on pc        368
Write Back
Fetch1
Fetch : from Pc        380 , expanded inst : 6160749c0100, 
subl %6, %0

Cycle      14185 ----------------------------------------------------

cycle      14185
Mem on pc        368
Exec on pc        374
Write Back
stall occured
Loaded      16383 from        136

Cycle      14186 ----------------------------------------------------

cycle      14186
Mem on pc        374
Write Back
WriteM writes      16383 on  6
stall occured
Loaded      16383 from         76

Cycle      14187 ----------------------------------------------------

cycle      14187
Write Back
WriteM writes      16383 on  0
Fetch1
Fetch : from Pc        382 , expanded inst : 749c01000060, 
jne $0000019c

Cycle      14188 ----------------------------------------------------

cycle      14188
Exec on pc        380
Fetch1
Fetch : from Pc        387 , expanded inst : 6071607230f6, 
addl %7, %1

Cycle      14189 ----------------------------------------------------

cycle      14189
Mem on pc        380
Exec on pc        382
Fetch1
Fetch : from Pc        389 , expanded inst : 607230f60100, 
addl %7, %2

Cycle      14190 ----------------------------------------------------

cycle      14190
Mem on pc        382
Exec on pc        387
Write Back
WriteE writes          0 on  0
Fetch1
Fetch : from Pc        391 , expanded inst : 30f601000000, 
irmovl $00000001,  %6

Cycle      14191 ----------------------------------------------------

cycle      14191
Mem on pc        387
Exec on pc        389
Write Back
Fetch1
Fetch : from Pc        397 , expanded inst : 606330f60f00, 
addl %6, %3

Cycle      14192 ----------------------------------------------------

cycle      14192
Mem on pc        389
Exec on pc        391
Write Back
WriteE writes        140 on  1
stall occured

Cycle      14193 ----------------------------------------------------

cycle      14193
Mem on pc        391
Write Back
WriteE writes         80 on  2
stall occured

Cycle      14194 ----------------------------------------------------

cycle      14194
Write Back
WriteE writes          1 on  6
Fetch1
Fetch : from Pc        399 , expanded inst : 30f60f000000, 
irmovl $0000000f,  %6

Cycle      14195 ----------------------------------------------------

cycle      14195
Exec on pc        397
Fetch1
Fetch : from Pc        405 , expanded inst : 613674700100, 
subl %3, %6

Cycle      14196 ----------------------------------------------------

cycle      14196
Mem on pc        397
Exec on pc        399
stall occured

Cycle      14197 ----------------------------------------------------

cycle      14197
Mem on pc        399
Write Back
WriteE writes         15 on  3
stall occured

Cycle      14198 ----------------------------------------------------

cycle      14198
Write Back
WriteE writes         15 on  6
Fetch1
Fetch : from Pc        407 , expanded inst : 7470010000c0, 
jne $00000170

Cycle      14199 ----------------------------------------------------

cycle      14199
Exec on pc        405
Fetch1
Fetch : from Pc        407 , expanded inst : 7470010000c0, 
jne $00000170

Cycle      14200 ----------------------------------------------------

cycle      14200
Mem on pc        405
Exec on pc        407
ExecRedirect : addr        412
Fetch1
Fetch : from Pc        412 , expanded inst : c00e0000aaaa, 
mtc0 %0, %e

Cycle      14201 ----------------------------------------------------

cycle      14201
Mem on pc        407
Exec : Invalidated on pc        407
Write Back
WriteE writes          0 on  6
Fetch1
Fetch : from Pc        414 , expanded inst : 0000aaaaaaaa, 
halt

Cycle      14202 ----------------------------------------------------

cycle      14202
Mem invalidated on pc        407
Exec on pc        412
Write Back
Fetch1
Fetch : from Pc        415 , expanded inst : 00aaaaaaaaaa, 
halt

Cycle      14203 ----------------------------------------------------

cycle      14203
Mem on pc        412
Exec on pc        414
Write Back
Fetch1
Fetch : from Pc        416 , expanded inst : aaaaaaaaaaaa, 
push %a

Cycle      14204 ----------------------------------------------------

cycle      14204
Mem on pc        414
Exec on pc        415
Write Back
WriteE writes          0 on 14
Fetch1
Fetch : from Pc        418 , expanded inst : aaaaaaaaaaaa, 
push %a

Cycle      14205 ----------------------------------------------------
