Warning: file 'memory.vmh' for memory 'dMem' has a gap at addresses 11 to 14.
Warning: file 'memory.vmh' for memory 'dMem' has a gap at addresses 23 to 24.
Warning: file 'memory.vmh' for memory 'dMem' has a gap at addresses 40 to 67108863.
Warning: file 'memory.vmh' for memory 'iMem' has a gap at addresses 11 to 14.
Warning: file 'memory.vmh' for memory 'iMem' has a gap at addresses 23 to 24.
Warning: file 'memory.vmh' for memory 'iMem' has a gap at addresses 40 to 67108863.

Cycle          0 ----------------------------------------------------

cycle          0
Fetch : from Pc          0 , expanded inst : 30f400010000, 
irmovl $00000100,  %4

Cycle          1 ----------------------------------------------------

cycle          1
Decode : from Pc          0 , expanded inst : 30f400010000, 
irmovl $00000100,  %4
Exec : ppc          6

Cycle          2 ----------------------------------------------------

cycle          2
On  4, writes        256   (wrE)

Cycle          3 ----------------------------------------------------

cycle          3
Fetch : from Pc          6 , expanded inst : 30f500010000, 
irmovl $00000100,  %5

Cycle          4 ----------------------------------------------------

cycle          4
Decode : from Pc          6 , expanded inst : 30f500010000, 
irmovl $00000100,  %5
Exec : ppc         12

Cycle          5 ----------------------------------------------------

cycle          5
On  5, writes        256   (wrE)

Cycle          6 ----------------------------------------------------

cycle          6
Fetch : from Pc         12 , expanded inst : 803c00000030, 
call 0000003c

Cycle          7 ----------------------------------------------------

cycle          7
Decode : from Pc         12 , expanded inst : 803c00000030, 
call 0000003c
Exec : ppc         17

Cycle          8 ----------------------------------------------------

cycle          8
Stored         17 into        252
Stat update

Cycle          9 ----------------------------------------------------

cycle          9
On  4, writes        252   (wrE)

Cycle         10 ----------------------------------------------------

cycle         10
Fetch : from Pc         60 , expanded inst : a05f204530f0, 
push %5

Cycle         11 ----------------------------------------------------

cycle         11
Decode : from Pc         60 , expanded inst : a05f204530f0, 
push %5
Exec : ppc         62

Cycle         12 ----------------------------------------------------

cycle         12
Stored        256 into        248
Stat update

Cycle         13 ----------------------------------------------------

cycle         13
On  4, writes        248   (wrE)

Cycle         14 ----------------------------------------------------

cycle         14
Fetch : from Pc         62 , expanded inst : 204530f00400, 
rrmovl %4, %5

Cycle         15 ----------------------------------------------------

cycle         15
Decode : from Pc         62 , expanded inst : 204530f00400, 
rrmovl %4, %5
Exec : ppc         64

Cycle         16 ----------------------------------------------------

cycle         16
On  5, writes        248   (wrE)

Cycle         17 ----------------------------------------------------

cycle         17
Fetch : from Pc         64 , expanded inst : 30f004000000, 
irmovl $00000004,  %0

Cycle         18 ----------------------------------------------------

cycle         18
Decode : from Pc         64 , expanded inst : 30f004000000, 
irmovl $00000004,  %0
Exec : ppc         70

Cycle         19 ----------------------------------------------------

cycle         19
On  0, writes          4   (wrE)

Cycle         20 ----------------------------------------------------

cycle         20
Fetch : from Pc         70 , expanded inst : a00f30f21c00, 
push %0

Cycle         21 ----------------------------------------------------

cycle         21
Decode : from Pc         70 , expanded inst : a00f30f21c00, 
push %0
Exec : ppc         72

Cycle         22 ----------------------------------------------------

cycle         22
Stored          4 into        244
Stat update

Cycle         23 ----------------------------------------------------

cycle         23
On  4, writes        244   (wrE)

Cycle         24 ----------------------------------------------------

cycle         24
Fetch : from Pc         72 , expanded inst : 30f21c000000, 
irmovl $0000001c,  %2

Cycle         25 ----------------------------------------------------

cycle         25
Decode : from Pc         72 , expanded inst : 30f21c000000, 
irmovl $0000001c,  %2
Exec : ppc         78

Cycle         26 ----------------------------------------------------

cycle         26
On  2, writes         28   (wrE)

Cycle         27 ----------------------------------------------------

cycle         27
Fetch : from Pc         78 , expanded inst : a02f80640000, 
push %2

Cycle         28 ----------------------------------------------------

cycle         28
Decode : from Pc         78 , expanded inst : a02f80640000, 
push %2
Exec : ppc         80

Cycle         29 ----------------------------------------------------

cycle         29
Stored         28 into        240
Stat update

Cycle         30 ----------------------------------------------------

cycle         30
On  4, writes        240   (wrE)

Cycle         31 ----------------------------------------------------

cycle         31
Fetch : from Pc         80 , expanded inst : 806400000020, 
call 00000064

Cycle         32 ----------------------------------------------------

cycle         32
Decode : from Pc         80 , expanded inst : 806400000020, 
call 00000064
Exec : ppc         85

Cycle         33 ----------------------------------------------------

cycle         33
Stored         85 into        236
Stat update

Cycle         34 ----------------------------------------------------

cycle         34
On  4, writes        236   (wrE)

Cycle         35 ----------------------------------------------------

cycle         35
Fetch : from Pc        100 , expanded inst : a05f20455015, 
push %5

Cycle         36 ----------------------------------------------------

cycle         36
Decode : from Pc        100 , expanded inst : a05f20455015, 
push %5
Exec : ppc        102

Cycle         37 ----------------------------------------------------

cycle         37
Stored        248 into        232
Stat update

Cycle         38 ----------------------------------------------------

cycle         38
On  4, writes        232   (wrE)

Cycle         39 ----------------------------------------------------

cycle         39
Fetch : from Pc        102 , expanded inst : 204550150800, 
rrmovl %4, %5

Cycle         40 ----------------------------------------------------

cycle         40
Decode : from Pc        102 , expanded inst : 204550150800, 
rrmovl %4, %5
Exec : ppc        104

Cycle         41 ----------------------------------------------------

cycle         41
On  5, writes        232   (wrE)

Cycle         42 ----------------------------------------------------

cycle         42
Fetch : from Pc        104 , expanded inst : 501508000000, 
mrmovl 00000008(%5), %1

Cycle         43 ----------------------------------------------------

cycle         43
Decode : from Pc        104 , expanded inst : 501508000000, 
mrmovl 00000008(%5), %1
Exec : ppc        110

Cycle         44 ----------------------------------------------------

cycle         44
Loaded         28 from        240
Stat update

Cycle         45 ----------------------------------------------------

cycle         45
On  1, writes         28   (wrM)

Cycle         46 ----------------------------------------------------

cycle         46
Fetch : from Pc        110 , expanded inst : 50250c000000, 
mrmovl 0000000c(%5), %2

Cycle         47 ----------------------------------------------------

cycle         47
Decode : from Pc        110 , expanded inst : 50250c000000, 
mrmovl 0000000c(%5), %2
Exec : ppc        116

Cycle         48 ----------------------------------------------------

cycle         48
Loaded          4 from        244
Stat update

Cycle         49 ----------------------------------------------------

cycle         49
On  2, writes          4   (wrM)

Cycle         50 ----------------------------------------------------

cycle         50
Fetch : from Pc        116 , expanded inst : 630062227397, 
xorl %0, %0

Cycle         51 ----------------------------------------------------

cycle         51
Decode : from Pc        116 , expanded inst : 630062227397, 
xorl %0, %0
Exec : ppc        118

Cycle         52 ----------------------------------------------------

cycle         52
On  0, writes          0   (wrE)

Cycle         53 ----------------------------------------------------

cycle         53
Fetch : from Pc        118 , expanded inst : 622273970000, 
andl %2, %2

Cycle         54 ----------------------------------------------------

cycle         54
Decode : from Pc        118 , expanded inst : 622273970000, 
andl %2, %2
Exec : ppc        120

Cycle         55 ----------------------------------------------------

cycle         55
On  2, writes          4   (wrE)

Cycle         56 ----------------------------------------------------

cycle         56
Fetch : from Pc        120 , expanded inst : 739700000050, 
je $00000097

Cycle         57 ----------------------------------------------------

cycle         57
Decode : from Pc        120 , expanded inst : 739700000050, 
je $00000097
Exec : ppc        125

Cycle         58 ----------------------------------------------------

cycle         58

Cycle         59 ----------------------------------------------------

cycle         59
Fetch : from Pc        125 , expanded inst : 506100000000, 
mrmovl 00000000(%1), %6

Cycle         60 ----------------------------------------------------

cycle         60
Decode : from Pc        125 , expanded inst : 506100000000, 
mrmovl 00000000(%1), %6
Exec : ppc        131

Cycle         61 ----------------------------------------------------

cycle         61
Loaded         13 from         28
Stat update

Cycle         62 ----------------------------------------------------

cycle         62
On  6, writes         13   (wrM)

Cycle         63 ----------------------------------------------------

cycle         63
Fetch : from Pc        131 , expanded inst : 606030f30400, 
addl %6, %0

Cycle         64 ----------------------------------------------------

cycle         64
Decode : from Pc        131 , expanded inst : 606030f30400, 
addl %6, %0
Exec : ppc        133

Cycle         65 ----------------------------------------------------

cycle         65
On  0, writes         13   (wrE)

Cycle         66 ----------------------------------------------------

cycle         66
Fetch : from Pc        133 , expanded inst : 30f304000000, 
irmovl $00000004,  %3

Cycle         67 ----------------------------------------------------

cycle         67
Decode : from Pc        133 , expanded inst : 30f304000000, 
irmovl $00000004,  %3
Exec : ppc        139

Cycle         68 ----------------------------------------------------

cycle         68
On  3, writes          4   (wrE)

Cycle         69 ----------------------------------------------------

cycle         69
Fetch : from Pc        139 , expanded inst : 603130f3ffff, 
addl %3, %1

Cycle         70 ----------------------------------------------------

cycle         70
Decode : from Pc        139 , expanded inst : 603130f3ffff, 
addl %3, %1
Exec : ppc        141

Cycle         71 ----------------------------------------------------

cycle         71
On  1, writes         32   (wrE)

Cycle         72 ----------------------------------------------------

cycle         72
Fetch : from Pc        141 , expanded inst : 30f3ffffffff, 
irmovl $ffffffff,  %3

Cycle         73 ----------------------------------------------------

cycle         73
Decode : from Pc        141 , expanded inst : 30f3ffffffff, 
irmovl $ffffffff,  %3
Exec : ppc        147

Cycle         74 ----------------------------------------------------

cycle         74
On  3, writes 4294967295   (wrE)

Cycle         75 ----------------------------------------------------

cycle         75
Fetch : from Pc        147 , expanded inst : 6032747d0000, 
addl %3, %2

Cycle         76 ----------------------------------------------------

cycle         76
Decode : from Pc        147 , expanded inst : 6032747d0000, 
addl %3, %2
Exec : ppc        149

Cycle         77 ----------------------------------------------------

cycle         77
On  2, writes          3   (wrE)

Cycle         78 ----------------------------------------------------

cycle         78
Fetch : from Pc        149 , expanded inst : 747d00000020, 
jne $0000007d

Cycle         79 ----------------------------------------------------

cycle         79
Decode : from Pc        149 , expanded inst : 747d00000020, 
jne $0000007d
Exec : ppc        154

Cycle         80 ----------------------------------------------------

cycle         80

Cycle         81 ----------------------------------------------------

cycle         81
Fetch : from Pc        125 , expanded inst : 506100000000, 
mrmovl 00000000(%1), %6

Cycle         82 ----------------------------------------------------

cycle         82
Decode : from Pc        125 , expanded inst : 506100000000, 
mrmovl 00000000(%1), %6
Exec : ppc        131

Cycle         83 ----------------------------------------------------

cycle         83
Loaded        192 from         32
Stat update

Cycle         84 ----------------------------------------------------

cycle         84
On  6, writes        192   (wrM)

Cycle         85 ----------------------------------------------------

cycle         85
Fetch : from Pc        131 , expanded inst : 606030f30400, 
addl %6, %0

Cycle         86 ----------------------------------------------------

cycle         86
Decode : from Pc        131 , expanded inst : 606030f30400, 
addl %6, %0
Exec : ppc        133

Cycle         87 ----------------------------------------------------

cycle         87
On  0, writes        205   (wrE)

Cycle         88 ----------------------------------------------------

cycle         88
Fetch : from Pc        133 , expanded inst : 30f304000000, 
irmovl $00000004,  %3

Cycle         89 ----------------------------------------------------

cycle         89
Decode : from Pc        133 , expanded inst : 30f304000000, 
irmovl $00000004,  %3
Exec : ppc        139

Cycle         90 ----------------------------------------------------

cycle         90
On  3, writes          4   (wrE)

Cycle         91 ----------------------------------------------------

cycle         91
Fetch : from Pc        139 , expanded inst : 603130f3ffff, 
addl %3, %1

Cycle         92 ----------------------------------------------------

cycle         92
Decode : from Pc        139 , expanded inst : 603130f3ffff, 
addl %3, %1
Exec : ppc        141

Cycle         93 ----------------------------------------------------

cycle         93
On  1, writes         36   (wrE)

Cycle         94 ----------------------------------------------------

cycle         94
Fetch : from Pc        141 , expanded inst : 30f3ffffffff, 
irmovl $ffffffff,  %3

Cycle         95 ----------------------------------------------------

cycle         95
Decode : from Pc        141 , expanded inst : 30f3ffffffff, 
irmovl $ffffffff,  %3
Exec : ppc        147

Cycle         96 ----------------------------------------------------

cycle         96
On  3, writes 4294967295   (wrE)

Cycle         97 ----------------------------------------------------

cycle         97
Fetch : from Pc        147 , expanded inst : 6032747d0000, 
addl %3, %2

Cycle         98 ----------------------------------------------------

cycle         98
Decode : from Pc        147 , expanded inst : 6032747d0000, 
addl %3, %2
Exec : ppc        149

Cycle         99 ----------------------------------------------------

cycle         99
On  2, writes          2   (wrE)

Cycle        100 ----------------------------------------------------

cycle        100
Fetch : from Pc        149 , expanded inst : 747d00000020, 
jne $0000007d

Cycle        101 ----------------------------------------------------

cycle        101
Decode : from Pc        149 , expanded inst : 747d00000020, 
jne $0000007d
Exec : ppc        154

Cycle        102 ----------------------------------------------------

cycle        102

Cycle        103 ----------------------------------------------------

cycle        103
Fetch : from Pc        125 , expanded inst : 506100000000, 
mrmovl 00000000(%1), %6

Cycle        104 ----------------------------------------------------

cycle        104
Decode : from Pc        125 , expanded inst : 506100000000, 
mrmovl 00000000(%1), %6
Exec : ppc        131

Cycle        105 ----------------------------------------------------

cycle        105
Loaded       2816 from         36
Stat update

Cycle        106 ----------------------------------------------------

cycle        106
On  6, writes       2816   (wrM)

Cycle        107 ----------------------------------------------------

cycle        107
Fetch : from Pc        131 , expanded inst : 606030f30400, 
addl %6, %0

Cycle        108 ----------------------------------------------------

cycle        108
Decode : from Pc        131 , expanded inst : 606030f30400, 
addl %6, %0
Exec : ppc        133

Cycle        109 ----------------------------------------------------

cycle        109
On  0, writes       3021   (wrE)

Cycle        110 ----------------------------------------------------

cycle        110
Fetch : from Pc        133 , expanded inst : 30f304000000, 
irmovl $00000004,  %3

Cycle        111 ----------------------------------------------------

cycle        111
Decode : from Pc        133 , expanded inst : 30f304000000, 
irmovl $00000004,  %3
Exec : ppc        139

Cycle        112 ----------------------------------------------------

cycle        112
On  3, writes          4   (wrE)

Cycle        113 ----------------------------------------------------

cycle        113
Fetch : from Pc        139 , expanded inst : 603130f3ffff, 
addl %3, %1

Cycle        114 ----------------------------------------------------

cycle        114
Decode : from Pc        139 , expanded inst : 603130f3ffff, 
addl %3, %1
Exec : ppc        141

Cycle        115 ----------------------------------------------------

cycle        115
On  1, writes         40   (wrE)

Cycle        116 ----------------------------------------------------

cycle        116
Fetch : from Pc        141 , expanded inst : 30f3ffffffff, 
irmovl $ffffffff,  %3

Cycle        117 ----------------------------------------------------

cycle        117
Decode : from Pc        141 , expanded inst : 30f3ffffffff, 
irmovl $ffffffff,  %3
Exec : ppc        147

Cycle        118 ----------------------------------------------------

cycle        118
On  3, writes 4294967295   (wrE)

Cycle        119 ----------------------------------------------------

cycle        119
Fetch : from Pc        147 , expanded inst : 6032747d0000, 
addl %3, %2

Cycle        120 ----------------------------------------------------

cycle        120
Decode : from Pc        147 , expanded inst : 6032747d0000, 
addl %3, %2
Exec : ppc        149

Cycle        121 ----------------------------------------------------

cycle        121
On  2, writes          1   (wrE)

Cycle        122 ----------------------------------------------------

cycle        122
Fetch : from Pc        149 , expanded inst : 747d00000020, 
jne $0000007d

Cycle        123 ----------------------------------------------------

cycle        123
Decode : from Pc        149 , expanded inst : 747d00000020, 
jne $0000007d
Exec : ppc        154

Cycle        124 ----------------------------------------------------

cycle        124

Cycle        125 ----------------------------------------------------

cycle        125
Fetch : from Pc        125 , expanded inst : 506100000000, 
mrmovl 00000000(%1), %6

Cycle        126 ----------------------------------------------------

cycle        126
Decode : from Pc        125 , expanded inst : 506100000000, 
mrmovl 00000000(%1), %6
Exec : ppc        131

Cycle        127 ----------------------------------------------------

cycle        127
Loaded      40960 from         40
Stat update

Cycle        128 ----------------------------------------------------

cycle        128
On  6, writes      40960   (wrM)

Cycle        129 ----------------------------------------------------

cycle        129
Fetch : from Pc        131 , expanded inst : 606030f30400, 
addl %6, %0

Cycle        130 ----------------------------------------------------

cycle        130
Decode : from Pc        131 , expanded inst : 606030f30400, 
addl %6, %0
Exec : ppc        133

Cycle        131 ----------------------------------------------------

cycle        131
On  0, writes      43981   (wrE)

Cycle        132 ----------------------------------------------------

cycle        132
Fetch : from Pc        133 , expanded inst : 30f304000000, 
irmovl $00000004,  %3

Cycle        133 ----------------------------------------------------

cycle        133
Decode : from Pc        133 , expanded inst : 30f304000000, 
irmovl $00000004,  %3
Exec : ppc        139

Cycle        134 ----------------------------------------------------

cycle        134
On  3, writes          4   (wrE)

Cycle        135 ----------------------------------------------------

cycle        135
Fetch : from Pc        139 , expanded inst : 603130f3ffff, 
addl %3, %1

Cycle        136 ----------------------------------------------------

cycle        136
Decode : from Pc        139 , expanded inst : 603130f3ffff, 
addl %3, %1
Exec : ppc        141

Cycle        137 ----------------------------------------------------

cycle        137
On  1, writes         44   (wrE)

Cycle        138 ----------------------------------------------------

cycle        138
Fetch : from Pc        141 , expanded inst : 30f3ffffffff, 
irmovl $ffffffff,  %3

Cycle        139 ----------------------------------------------------

cycle        139
Decode : from Pc        141 , expanded inst : 30f3ffffffff, 
irmovl $ffffffff,  %3
Exec : ppc        147

Cycle        140 ----------------------------------------------------

cycle        140
On  3, writes 4294967295   (wrE)

Cycle        141 ----------------------------------------------------

cycle        141
Fetch : from Pc        147 , expanded inst : 6032747d0000, 
addl %3, %2

Cycle        142 ----------------------------------------------------

cycle        142
Decode : from Pc        147 , expanded inst : 6032747d0000, 
addl %3, %2
Exec : ppc        149

Cycle        143 ----------------------------------------------------

cycle        143
On  2, writes          0   (wrE)

Cycle        144 ----------------------------------------------------

cycle        144
Fetch : from Pc        149 , expanded inst : 747d00000020, 
jne $0000007d

Cycle        145 ----------------------------------------------------

cycle        145
Decode : from Pc        149 , expanded inst : 747d00000020, 
jne $0000007d
Exec : ppc        154

Cycle        146 ----------------------------------------------------

cycle        146

Cycle        147 ----------------------------------------------------

cycle        147
Fetch : from Pc        154 , expanded inst : 2054b05f9000, 
rrmovl %5, %4

Cycle        148 ----------------------------------------------------

cycle        148
Decode : from Pc        154 , expanded inst : 2054b05f9000, 
rrmovl %5, %4
Exec : ppc        156

Cycle        149 ----------------------------------------------------

cycle        149
On  4, writes        232   (wrE)

Cycle        150 ----------------------------------------------------

cycle        150
Fetch : from Pc        156 , expanded inst : b05f9000aaaa, 
pop %5

Cycle        151 ----------------------------------------------------

cycle        151
Decode : from Pc        156 , expanded inst : b05f9000aaaa, 
pop %5
Exec : ppc        158

Cycle        152 ----------------------------------------------------

cycle        152
Loaded        248 from        232
Stat update

Cycle        153 ----------------------------------------------------

cycle        153
On  4, writes        236   (wrE)
On  5, writes        248   (wrM)

Cycle        154 ----------------------------------------------------

cycle        154
Fetch : from Pc        158 , expanded inst : 9000aaaaaaaa, 
ret

Cycle        155 ----------------------------------------------------

cycle        155
Decode : from Pc        158 , expanded inst : 9000aaaaaaaa, 
ret
Exec : ppc        159

Cycle        156 ----------------------------------------------------

cycle        156
Loaded         85 from        236
Stat update

Cycle        157 ----------------------------------------------------

cycle        157
On  4, writes        240   (wrE)

Cycle        158 ----------------------------------------------------

cycle        158
Fetch : from Pc         85 , expanded inst : 2054b05f9000, 
rrmovl %5, %4

Cycle        159 ----------------------------------------------------

cycle        159
Decode : from Pc         85 , expanded inst : 2054b05f9000, 
rrmovl %5, %4
Exec : ppc         87

Cycle        160 ----------------------------------------------------

cycle        160
On  4, writes        248   (wrE)

Cycle        161 ----------------------------------------------------

cycle        161
Fetch : from Pc         87 , expanded inst : b05f900000aa, 
pop %5

Cycle        162 ----------------------------------------------------

cycle        162
Decode : from Pc         87 , expanded inst : b05f900000aa, 
pop %5
Exec : ppc         89

Cycle        163 ----------------------------------------------------

cycle        163
Loaded        256 from        248
Stat update

Cycle        164 ----------------------------------------------------

cycle        164
On  4, writes        252   (wrE)
On  5, writes        256   (wrM)

Cycle        165 ----------------------------------------------------

cycle        165
Fetch : from Pc         89 , expanded inst : 900000aaaaaa, 
ret

Cycle        166 ----------------------------------------------------

cycle        166
Decode : from Pc         89 , expanded inst : 900000aaaaaa, 
ret
Exec : ppc         90

Cycle        167 ----------------------------------------------------

cycle        167
Loaded         17 from        252
Stat update

Cycle        168 ----------------------------------------------------

cycle        168
On  4, writes        256   (wrE)

Cycle        169 ----------------------------------------------------

cycle        169
Fetch : from Pc         17 , expanded inst : 30f3cdab0000, 
irmovl $0000abcd,  %3

Cycle        170 ----------------------------------------------------

cycle        170
Decode : from Pc         17 , expanded inst : 30f3cdab0000, 
irmovl $0000abcd,  %3
Exec : ppc         23

Cycle        171 ----------------------------------------------------

cycle        171
On  3, writes      43981   (wrE)

Cycle        172 ----------------------------------------------------

cycle        172
Fetch : from Pc         23 , expanded inst : 6130c00e000d, 
subl %3, %0

Cycle        173 ----------------------------------------------------

cycle        173
Decode : from Pc         23 , expanded inst : 6130c00e000d, 
subl %3, %0
Exec : ppc         25

Cycle        174 ----------------------------------------------------

cycle        174
On  0, writes          0   (wrE)

Cycle        175 ----------------------------------------------------

cycle        175
Fetch : from Pc         25 , expanded inst : c00e000d0000, 
mtc0 %0, %e

Cycle        176 ----------------------------------------------------

cycle        176
Decode : from Pc         25 , expanded inst : c00e000d0000, 
mtc0 %0, %e
Exec : ppc         27

Cycle        177 ----------------------------------------------------

cycle        177
On 14, writes          0   (wrE)

Cycle        178 ----------------------------------------------------
