Warning: file 'memory.vmh' for memory 'dMem' has a gap at addresses 8 to 63.
Warning: file 'memory.vmh' for memory 'dMem' has a gap at addresses 67 to 67108863.
Warning: file 'memory.vmh' for memory 'iMem' has a gap at addresses 8 to 63.
Warning: file 'memory.vmh' for memory 'iMem' has a gap at addresses 67 to 67108863.

Cycle          0 ----------------------------------------------------

cycle          0
Fetch : from Pc          0 , expanded inst : 30f400010000, 
irmovl $00000100,  %4

Cycle          1 ----------------------------------------------------

cycle          1
Decode : from Pc          0 , expanded inst : 30f400010000, 
irmovl $00000100,  %4
Exec : ppc          6

Cycle          2 ----------------------------------------------------

cycle          2
On  4, writes        256   (wrE)

Cycle          3 ----------------------------------------------------

cycle          3
Fetch : from Pc          6 , expanded inst : 500400000000, 
mrmovl 00000000(%4), %0

Cycle          4 ----------------------------------------------------

cycle          4
Decode : from Pc          6 , expanded inst : 500400000000, 
mrmovl 00000000(%4), %0
Exec : ppc         12

Cycle          5 ----------------------------------------------------

cycle          5
Loaded         10 from        256
Stat update

Cycle          6 ----------------------------------------------------

cycle          6
On  0, writes         10   (wrM)

Cycle          7 ----------------------------------------------------

cycle          7
Fetch : from Pc         12 , expanded inst : 501404000000, 
mrmovl 00000004(%4), %1

Cycle          8 ----------------------------------------------------

cycle          8
Decode : from Pc         12 , expanded inst : 501404000000, 
mrmovl 00000004(%4), %1
Exec : ppc         18

Cycle          9 ----------------------------------------------------

cycle          9
Loaded          3 from        260
Stat update

Cycle         10 ----------------------------------------------------

cycle         10
On  1, writes          3   (wrM)

Cycle         11 ----------------------------------------------------

cycle         11
Fetch : from Pc         18 , expanded inst : 502408000000, 
mrmovl 00000008(%4), %2

Cycle         12 ----------------------------------------------------

cycle         12
Decode : from Pc         18 , expanded inst : 502408000000, 
mrmovl 00000008(%4), %2
Exec : ppc         24

Cycle         13 ----------------------------------------------------

cycle         13
Loaded          7 from        264
Stat update

Cycle         14 ----------------------------------------------------

cycle         14
On  2, writes          7   (wrM)

Cycle         15 ----------------------------------------------------

cycle         15
Fetch : from Pc         24 , expanded inst : 60126120c00e, 
addl %1, %2

Cycle         16 ----------------------------------------------------

cycle         16
Decode : from Pc         24 , expanded inst : 60126120c00e, 
addl %1, %2
Exec : ppc         26

Cycle         17 ----------------------------------------------------

cycle         17
On  2, writes         10   (wrE)

Cycle         18 ----------------------------------------------------

cycle         18
Fetch : from Pc         26 , expanded inst : 6120c00e0000, 
subl %2, %0

Cycle         19 ----------------------------------------------------

cycle         19
Decode : from Pc         26 , expanded inst : 6120c00e0000, 
subl %2, %0
Exec : ppc         28

Cycle         20 ----------------------------------------------------

cycle         20
On  0, writes          0   (wrE)

Cycle         21 ----------------------------------------------------

cycle         21
Fetch : from Pc         28 , expanded inst : c00e0000aaaa, 
mtc0 %0, %e

Cycle         22 ----------------------------------------------------

cycle         22
Decode : from Pc         28 , expanded inst : c00e0000aaaa, 
mtc0 %0, %e
Exec : ppc         30

Cycle         23 ----------------------------------------------------

cycle         23
On 14, writes          0   (wrE)

Cycle         24 ----------------------------------------------------
