Warning: file 'memory.vmh' for memory 'dMem' has a gap at addresses 20 to 49.
Warning: file 'memory.vmh' for memory 'dMem' has a gap at address 67.
Warning: file 'memory.vmh' for memory 'dMem' has a gap at addresses 104 to 67108863.
Warning: file 'memory.vmh' for memory 'iMem' has a gap at addresses 20 to 49.
Warning: file 'memory.vmh' for memory 'iMem' has a gap at address 67.
Warning: file 'memory.vmh' for memory 'iMem' has a gap at addresses 104 to 67108863.

Cycle          0 ----------------------------------------------------

cycle          0
Fetch : from Pc          0 , expanded inst : 30f4f4010000, 
irmovl $000001f4,  %4

Cycle          1 ----------------------------------------------------

cycle          1
Decode : from Pc          0 , expanded inst : 30f4f4010000, 
irmovl $000001f4,  %4
Exec : ppc          6

Cycle          2 ----------------------------------------------------

cycle          2
On  4, writes        500   (wrE)

Cycle          3 ----------------------------------------------------

cycle          3
Fetch : from Pc          6 , expanded inst : 30f5f4010000, 
irmovl $000001f4,  %5

Cycle          4 ----------------------------------------------------

cycle          4
Decode : from Pc          6 , expanded inst : 30f5f4010000, 
irmovl $000001f4,  %5
Exec : ppc         12

Cycle          5 ----------------------------------------------------

cycle          5
On  5, writes        500   (wrE)

Cycle          6 ----------------------------------------------------

cycle          6
Fetch : from Pc         12 , expanded inst : 701001000000, 
jmp $00000110

Cycle          7 ----------------------------------------------------

cycle          7
Decode : from Pc         12 , expanded inst : 701001000000, 
jmp $00000110
Exec : ppc         17

Cycle          8 ----------------------------------------------------

cycle          8

Cycle          9 ----------------------------------------------------

cycle          9
Fetch : from Pc        272 , expanded inst : 30f4f4010000, 
irmovl $000001f4,  %4

Cycle         10 ----------------------------------------------------

cycle         10
Decode : from Pc        272 , expanded inst : 30f4f4010000, 
irmovl $000001f4,  %4
Exec : ppc        278

Cycle         11 ----------------------------------------------------

cycle         11
On  4, writes        500   (wrE)

Cycle         12 ----------------------------------------------------

cycle         12
Fetch : from Pc        278 , expanded inst : 204530f30000, 
rrmovl %4, %5

Cycle         13 ----------------------------------------------------

cycle         13
Decode : from Pc        278 , expanded inst : 204530f30000, 
rrmovl %4, %5
Exec : ppc        280

Cycle         14 ----------------------------------------------------

cycle         14
On  5, writes        500   (wrE)

Cycle         15 ----------------------------------------------------

cycle         15
Fetch : from Pc        280 , expanded inst : 30f300000000, 
irmovl $00000000,  %3

Cycle         16 ----------------------------------------------------

cycle         16
Decode : from Pc        280 , expanded inst : 30f300000000, 
irmovl $00000000,  %3
Exec : ppc        286

Cycle         17 ----------------------------------------------------

cycle         17
On  3, writes          0   (wrE)

Cycle         18 ----------------------------------------------------

cycle         18
Fetch : from Pc        286 , expanded inst : 30f150000000, 
irmovl $00000050,  %1

Cycle         19 ----------------------------------------------------

cycle         19
Decode : from Pc        286 , expanded inst : 30f150000000, 
irmovl $00000050,  %1
Exec : ppc        292

Cycle         20 ----------------------------------------------------

cycle         20
On  1, writes         80   (wrE)

Cycle         21 ----------------------------------------------------

cycle         21
Fetch : from Pc        292 , expanded inst : 30f204000000, 
irmovl $00000004,  %2

Cycle         22 ----------------------------------------------------

cycle         22
Decode : from Pc        292 , expanded inst : 30f204000000, 
irmovl $00000004,  %2
Exec : ppc        298

Cycle         23 ----------------------------------------------------

cycle         23
On  2, writes          4   (wrE)

Cycle         24 ----------------------------------------------------

cycle         24
Fetch : from Pc        298 , expanded inst : a01fa02fa03f, 
push %1

Cycle         25 ----------------------------------------------------

cycle         25
Decode : from Pc        298 , expanded inst : a01fa02fa03f, 
push %1
Exec : ppc        300

Cycle         26 ----------------------------------------------------

cycle         26
Stored         80 into        496
Stat update

Cycle         27 ----------------------------------------------------

cycle         27
On  4, writes        496   (wrE)

Cycle         28 ----------------------------------------------------

cycle         28
Fetch : from Pc        300 , expanded inst : a02fa03f80c8, 
push %2

Cycle         29 ----------------------------------------------------

cycle         29
Decode : from Pc        300 , expanded inst : a02fa03f80c8, 
push %2
Exec : ppc        302

Cycle         30 ----------------------------------------------------

cycle         30
Stored          4 into        492
Stat update

Cycle         31 ----------------------------------------------------

cycle         31
On  4, writes        492   (wrE)

Cycle         32 ----------------------------------------------------

cycle         32
Fetch : from Pc        302 , expanded inst : a03f80c80000, 
push %3

Cycle         33 ----------------------------------------------------

cycle         33
Decode : from Pc        302 , expanded inst : a03f80c80000, 
push %3
Exec : ppc        304

Cycle         34 ----------------------------------------------------

cycle         34
Stored          0 into        488
Stat update

Cycle         35 ----------------------------------------------------

cycle         35
On  4, writes        488   (wrE)

Cycle         36 ----------------------------------------------------

cycle         36
Fetch : from Pc        304 , expanded inst : 80c8000000b0, 
call 000000c8

Cycle         37 ----------------------------------------------------

cycle         37
Decode : from Pc        304 , expanded inst : 80c8000000b0, 
call 000000c8
Exec : ppc        309

Cycle         38 ----------------------------------------------------

cycle         38
Stored        309 into        484
Stat update

Cycle         39 ----------------------------------------------------

cycle         39
On  4, writes        484   (wrE)

Cycle         40 ----------------------------------------------------

cycle         40
Fetch : from Pc        200 , expanded inst : a05f2045a03f, 
push %5

Cycle         41 ----------------------------------------------------

cycle         41
Decode : from Pc        200 , expanded inst : a05f2045a03f, 
push %5
Exec : ppc        202

Cycle         42 ----------------------------------------------------

cycle         42
Stored        500 into        480
Stat update

Cycle         43 ----------------------------------------------------

cycle         43
On  4, writes        480   (wrE)

Cycle         44 ----------------------------------------------------

cycle         44
Fetch : from Pc        202 , expanded inst : 2045a03fa06f, 
rrmovl %4, %5

Cycle         45 ----------------------------------------------------

cycle         45
Decode : from Pc        202 , expanded inst : 2045a03fa06f, 
rrmovl %4, %5
Exec : ppc        204

Cycle         46 ----------------------------------------------------

cycle         46
On  5, writes        480   (wrE)

Cycle         47 ----------------------------------------------------

cycle         47
Fetch : from Pc        204 , expanded inst : a03fa06f5035, 
push %3

Cycle         48 ----------------------------------------------------

cycle         48
Decode : from Pc        204 , expanded inst : a03fa06f5035, 
push %3
Exec : ppc        206

Cycle         49 ----------------------------------------------------

cycle         49
Stored          0 into        476
Stat update

Cycle         50 ----------------------------------------------------

cycle         50
On  4, writes        476   (wrE)

Cycle         51 ----------------------------------------------------

cycle         51
Fetch : from Pc        206 , expanded inst : a06f50350800, 
push %6

Cycle         52 ----------------------------------------------------

cycle         52
Decode : from Pc        206 , expanded inst : a06f50350800, 
push %6
Exec : ppc        208

Cycle         53 ----------------------------------------------------

cycle         53
Stored          0 into        472
Stat update

Cycle         54 ----------------------------------------------------

cycle         54
On  4, writes        472   (wrE)

Cycle         55 ----------------------------------------------------

cycle         55
Fetch : from Pc        208 , expanded inst : 503508000000, 
mrmovl 00000008(%5), %3

Cycle         56 ----------------------------------------------------

cycle         56
Decode : from Pc        208 , expanded inst : 503508000000, 
mrmovl 00000008(%5), %3
Exec : ppc        214

Cycle         57 ----------------------------------------------------

cycle         57
Loaded          0 from        488
Stat update

Cycle         58 ----------------------------------------------------

cycle         58
On  3, writes          0   (wrM)

Cycle         59 ----------------------------------------------------

cycle         59
Fetch : from Pc        214 , expanded inst : 630062337101, 
xorl %0, %0

Cycle         60 ----------------------------------------------------

cycle         60
Decode : from Pc        214 , expanded inst : 630062337101, 
xorl %0, %0
Exec : ppc        216

Cycle         61 ----------------------------------------------------

cycle         61
On  0, writes          0   (wrE)

Cycle         62 ----------------------------------------------------

cycle         62
Fetch : from Pc        216 , expanded inst : 623371010100, 
andl %3, %3

Cycle         63 ----------------------------------------------------

cycle         63
Decode : from Pc        216 , expanded inst : 623371010100, 
andl %3, %3
Exec : ppc        218

Cycle         64 ----------------------------------------------------

cycle         64
On  3, writes          0   (wrE)

Cycle         65 ----------------------------------------------------

cycle         65
Fetch : from Pc        218 , expanded inst : 710101000020, 
jle $00000101

Cycle         66 ----------------------------------------------------

cycle         66
Decode : from Pc        218 , expanded inst : 710101000020, 
jle $00000101
Exec : ppc        223

Cycle         67 ----------------------------------------------------

cycle         67

Cycle         68 ----------------------------------------------------

cycle         68
Fetch : from Pc        257 , expanded inst : b06fb03f2054, 
pop %6

Cycle         69 ----------------------------------------------------

cycle         69
Decode : from Pc        257 , expanded inst : b06fb03f2054, 
pop %6
Exec : ppc        259

Cycle         70 ----------------------------------------------------

cycle         70
Loaded          0 from        472
Stat update

Cycle         71 ----------------------------------------------------

cycle         71
On  4, writes        476   (wrE)
On  6, writes          0   (wrM)

Cycle         72 ----------------------------------------------------

cycle         72
Fetch : from Pc        259 , expanded inst : b03f2054b05f, 
pop %3

Cycle         73 ----------------------------------------------------

cycle         73
Decode : from Pc        259 , expanded inst : b03f2054b05f, 
pop %3
Exec : ppc        261

Cycle         74 ----------------------------------------------------

cycle         74
Loaded          0 from        476
Stat update

Cycle         75 ----------------------------------------------------

cycle         75
On  4, writes        480   (wrE)
On  3, writes          0   (wrM)

Cycle         76 ----------------------------------------------------

cycle         76
Fetch : from Pc        261 , expanded inst : 2054b05f9000, 
rrmovl %5, %4

Cycle         77 ----------------------------------------------------

cycle         77
Decode : from Pc        261 , expanded inst : 2054b05f9000, 
rrmovl %5, %4
Exec : ppc        263

Cycle         78 ----------------------------------------------------

cycle         78
On  4, writes        480   (wrE)

Cycle         79 ----------------------------------------------------

cycle         79
Fetch : from Pc        263 , expanded inst : b05f900000aa, 
pop %5

Cycle         80 ----------------------------------------------------

cycle         80
Decode : from Pc        263 , expanded inst : b05f900000aa, 
pop %5
Exec : ppc        265

Cycle         81 ----------------------------------------------------

cycle         81
Loaded        500 from        480
Stat update

Cycle         82 ----------------------------------------------------

cycle         82
On  4, writes        484   (wrE)
On  5, writes        500   (wrM)

Cycle         83 ----------------------------------------------------

cycle         83
Fetch : from Pc        265 , expanded inst : 900000aaaaaa, 
ret

Cycle         84 ----------------------------------------------------

cycle         84
Decode : from Pc        265 , expanded inst : 900000aaaaaa, 
ret
Exec : ppc        266

Cycle         85 ----------------------------------------------------

cycle         85
Loaded        309 from        484
Stat update

Cycle         86 ----------------------------------------------------

cycle         86
On  4, writes        488   (wrE)

Cycle         87 ----------------------------------------------------

cycle         87
Fetch : from Pc        309 , expanded inst : b03fb02fb01f, 
pop %3

Cycle         88 ----------------------------------------------------

cycle         88
Decode : from Pc        309 , expanded inst : b03fb02fb01f, 
pop %3
Exec : ppc        311

Cycle         89 ----------------------------------------------------

cycle         89
Loaded          0 from        488
Stat update

Cycle         90 ----------------------------------------------------

cycle         90
On  4, writes        492   (wrE)
On  3, writes          0   (wrM)

Cycle         91 ----------------------------------------------------

cycle         91
Fetch : from Pc        311 , expanded inst : b02fb01f4001, 
pop %2

Cycle         92 ----------------------------------------------------

cycle         92
Decode : from Pc        311 , expanded inst : b02fb01f4001, 
pop %2
Exec : ppc        313

Cycle         93 ----------------------------------------------------

cycle         93
Loaded          4 from        492
Stat update

Cycle         94 ----------------------------------------------------

cycle         94
On  4, writes        496   (wrE)
On  2, writes          4   (wrM)

Cycle         95 ----------------------------------------------------

cycle         95
Fetch : from Pc        313 , expanded inst : b01f40010000, 
pop %1

Cycle         96 ----------------------------------------------------

cycle         96
Decode : from Pc        313 , expanded inst : b01f40010000, 
pop %1
Exec : ppc        315

Cycle         97 ----------------------------------------------------

cycle         97
Loaded         80 from        496
Stat update

Cycle         98 ----------------------------------------------------

cycle         98
On  4, writes        500   (wrE)
On  1, writes         80   (wrM)

Cycle         99 ----------------------------------------------------

cycle         99
Fetch : from Pc        315 , expanded inst : 400100000000, 
rmmovl %0, 00000000(%1)

Cycle        100 ----------------------------------------------------

cycle        100
Decode : from Pc        315 , expanded inst : 400100000000, 
rmmovl %0, 00000000(%1)
Exec : ppc        321

Cycle        101 ----------------------------------------------------

cycle        101
Stored          0 into         80
Stat update

Cycle        102 ----------------------------------------------------

cycle        102

Cycle        103 ----------------------------------------------------

cycle        103
Fetch : from Pc        321 , expanded inst : 602130f70f00, 
addl %2, %1

Cycle        104 ----------------------------------------------------

cycle        104
Decode : from Pc        321 , expanded inst : 602130f70f00, 
addl %2, %1
Exec : ppc        323

Cycle        105 ----------------------------------------------------

cycle        105
On  1, writes         84   (wrE)

Cycle        106 ----------------------------------------------------

cycle        106
Fetch : from Pc        323 , expanded inst : 30f70f000000, 
irmovl $0000000f,  %7

Cycle        107 ----------------------------------------------------

cycle        107
Decode : from Pc        323 , expanded inst : 30f70f000000, 
irmovl $0000000f,  %7
Exec : ppc        329

Cycle        108 ----------------------------------------------------

cycle        108
On  7, writes         15   (wrE)

Cycle        109 ----------------------------------------------------

cycle        109
Fetch : from Pc        329 , expanded inst : 30f601000000, 
irmovl $00000001,  %6

Cycle        110 ----------------------------------------------------

cycle        110
Decode : from Pc        329 , expanded inst : 30f601000000, 
irmovl $00000001,  %6
Exec : ppc        335

Cycle        111 ----------------------------------------------------

cycle        111
On  6, writes          1   (wrE)

Cycle        112 ----------------------------------------------------

cycle        112
Fetch : from Pc        335 , expanded inst : 60636137742a, 
addl %6, %3

Cycle        113 ----------------------------------------------------

cycle        113
Decode : from Pc        335 , expanded inst : 60636137742a, 
addl %6, %3
Exec : ppc        337

Cycle        114 ----------------------------------------------------

cycle        114
On  3, writes          1   (wrE)

Cycle        115 ----------------------------------------------------

cycle        115
Fetch : from Pc        337 , expanded inst : 6137742a0100, 
subl %3, %7

Cycle        116 ----------------------------------------------------

cycle        116
Decode : from Pc        337 , expanded inst : 6137742a0100, 
subl %3, %7
Exec : ppc        339

Cycle        117 ----------------------------------------------------

cycle        117
On  7, writes         14   (wrE)

Cycle        118 ----------------------------------------------------

cycle        118
Fetch : from Pc        339 , expanded inst : 742a01000030, 
jne $0000012a

Cycle        119 ----------------------------------------------------

cycle        119
Decode : from Pc        339 , expanded inst : 742a01000030, 
jne $0000012a
Exec : ppc        344

Cycle        120 ----------------------------------------------------

cycle        120

Cycle        121 ----------------------------------------------------

cycle        121
Fetch : from Pc        298 , expanded inst : a01fa02fa03f, 
push %1

Cycle        122 ----------------------------------------------------

cycle        122
Decode : from Pc        298 , expanded inst : a01fa02fa03f, 
push %1
Exec : ppc        300

Cycle        123 ----------------------------------------------------

cycle        123
Stored         84 into        496
Stat update

Cycle        124 ----------------------------------------------------

cycle        124
On  4, writes        496   (wrE)

Cycle        125 ----------------------------------------------------

cycle        125
Fetch : from Pc        300 , expanded inst : a02fa03f80c8, 
push %2

Cycle        126 ----------------------------------------------------

cycle        126
Decode : from Pc        300 , expanded inst : a02fa03f80c8, 
push %2
Exec : ppc        302

Cycle        127 ----------------------------------------------------

cycle        127
Stored          4 into        492
Stat update

Cycle        128 ----------------------------------------------------

cycle        128
On  4, writes        492   (wrE)

Cycle        129 ----------------------------------------------------

cycle        129
Fetch : from Pc        302 , expanded inst : a03f80c80000, 
push %3

Cycle        130 ----------------------------------------------------

cycle        130
Decode : from Pc        302 , expanded inst : a03f80c80000, 
push %3
Exec : ppc        304

Cycle        131 ----------------------------------------------------

cycle        131
Stored          1 into        488
Stat update

Cycle        132 ----------------------------------------------------

cycle        132
On  4, writes        488   (wrE)

Cycle        133 ----------------------------------------------------

cycle        133
Fetch : from Pc        304 , expanded inst : 80c8000000b0, 
call 000000c8

Cycle        134 ----------------------------------------------------

cycle        134
Decode : from Pc        304 , expanded inst : 80c8000000b0, 
call 000000c8
Exec : ppc        309

Cycle        135 ----------------------------------------------------

cycle        135
Stored        309 into        484
Stat update

Cycle        136 ----------------------------------------------------

cycle        136
On  4, writes        484   (wrE)

Cycle        137 ----------------------------------------------------

cycle        137
Fetch : from Pc        200 , expanded inst : a05f2045a03f, 
push %5

Cycle        138 ----------------------------------------------------

cycle        138
Decode : from Pc        200 , expanded inst : a05f2045a03f, 
push %5
Exec : ppc        202

Cycle        139 ----------------------------------------------------

cycle        139
Stored        500 into        480
Stat update

Cycle        140 ----------------------------------------------------

cycle        140
On  4, writes        480   (wrE)

Cycle        141 ----------------------------------------------------

cycle        141
Fetch : from Pc        202 , expanded inst : 2045a03fa06f, 
rrmovl %4, %5

Cycle        142 ----------------------------------------------------

cycle        142
Decode : from Pc        202 , expanded inst : 2045a03fa06f, 
rrmovl %4, %5
Exec : ppc        204

Cycle        143 ----------------------------------------------------

cycle        143
On  5, writes        480   (wrE)

Cycle        144 ----------------------------------------------------

cycle        144
Fetch : from Pc        204 , expanded inst : a03fa06f5035, 
push %3

Cycle        145 ----------------------------------------------------

cycle        145
Decode : from Pc        204 , expanded inst : a03fa06f5035, 
push %3
Exec : ppc        206

Cycle        146 ----------------------------------------------------

cycle        146
Stored          1 into        476
Stat update

Cycle        147 ----------------------------------------------------

cycle        147
On  4, writes        476   (wrE)

Cycle        148 ----------------------------------------------------

cycle        148
Fetch : from Pc        206 , expanded inst : a06f50350800, 
push %6

Cycle        149 ----------------------------------------------------

cycle        149
Decode : from Pc        206 , expanded inst : a06f50350800, 
push %6
Exec : ppc        208

Cycle        150 ----------------------------------------------------

cycle        150
Stored          1 into        472
Stat update

Cycle        151 ----------------------------------------------------

cycle        151
On  4, writes        472   (wrE)

Cycle        152 ----------------------------------------------------

cycle        152
Fetch : from Pc        208 , expanded inst : 503508000000, 
mrmovl 00000008(%5), %3

Cycle        153 ----------------------------------------------------

cycle        153
Decode : from Pc        208 , expanded inst : 503508000000, 
mrmovl 00000008(%5), %3
Exec : ppc        214

Cycle        154 ----------------------------------------------------

cycle        154
Loaded          1 from        488
Stat update

Cycle        155 ----------------------------------------------------

cycle        155
On  3, writes          1   (wrM)

Cycle        156 ----------------------------------------------------

cycle        156
Fetch : from Pc        214 , expanded inst : 630062337101, 
xorl %0, %0

Cycle        157 ----------------------------------------------------

cycle        157
Decode : from Pc        214 , expanded inst : 630062337101, 
xorl %0, %0
Exec : ppc        216

Cycle        158 ----------------------------------------------------

cycle        158
On  0, writes          0   (wrE)

Cycle        159 ----------------------------------------------------

cycle        159
Fetch : from Pc        216 , expanded inst : 623371010100, 
andl %3, %3

Cycle        160 ----------------------------------------------------

cycle        160
Decode : from Pc        216 , expanded inst : 623371010100, 
andl %3, %3
Exec : ppc        218

Cycle        161 ----------------------------------------------------

cycle        161
On  3, writes          1   (wrE)

Cycle        162 ----------------------------------------------------

cycle        162
Fetch : from Pc        218 , expanded inst : 710101000020, 
jle $00000101

Cycle        163 ----------------------------------------------------

cycle        163
Decode : from Pc        218 , expanded inst : 710101000020, 
jle $00000101
Exec : ppc        223

Cycle        164 ----------------------------------------------------

cycle        164

Cycle        165 ----------------------------------------------------

cycle        165
Fetch : from Pc        223 , expanded inst : 203130f00100, 
rrmovl %3, %1

Cycle        166 ----------------------------------------------------

cycle        166
Decode : from Pc        223 , expanded inst : 203130f00100, 
rrmovl %3, %1
Exec : ppc        225

Cycle        167 ----------------------------------------------------

cycle        167
On  1, writes          1   (wrE)

Cycle        168 ----------------------------------------------------

cycle        168
Fetch : from Pc        225 , expanded inst : 30f001000000, 
irmovl $00000001,  %0

Cycle        169 ----------------------------------------------------

cycle        169
Decode : from Pc        225 , expanded inst : 30f001000000, 
irmovl $00000001,  %0
Exec : ppc        231

Cycle        170 ----------------------------------------------------

cycle        170
On  0, writes          1   (wrE)

Cycle        171 ----------------------------------------------------

cycle        171
Fetch : from Pc        231 , expanded inst : 610173010100, 
subl %0, %1

Cycle        172 ----------------------------------------------------

cycle        172
Decode : from Pc        231 , expanded inst : 610173010100, 
subl %0, %1
Exec : ppc        233

Cycle        173 ----------------------------------------------------

cycle        173
On  1, writes          0   (wrE)

Cycle        174 ----------------------------------------------------

cycle        174
Fetch : from Pc        233 , expanded inst : 7301010000a0, 
je $00000101

Cycle        175 ----------------------------------------------------

cycle        175
Decode : from Pc        233 , expanded inst : 7301010000a0, 
je $00000101
Exec : ppc        238

Cycle        176 ----------------------------------------------------

cycle        176

Cycle        177 ----------------------------------------------------

cycle        177
Fetch : from Pc        257 , expanded inst : b06fb03f2054, 
pop %6

Cycle        178 ----------------------------------------------------

cycle        178
Decode : from Pc        257 , expanded inst : b06fb03f2054, 
pop %6
Exec : ppc        259

Cycle        179 ----------------------------------------------------

cycle        179
Loaded          1 from        472
Stat update

Cycle        180 ----------------------------------------------------

cycle        180
On  4, writes        476   (wrE)
On  6, writes          1   (wrM)

Cycle        181 ----------------------------------------------------

cycle        181
Fetch : from Pc        259 , expanded inst : b03f2054b05f, 
pop %3

Cycle        182 ----------------------------------------------------

cycle        182
Decode : from Pc        259 , expanded inst : b03f2054b05f, 
pop %3
Exec : ppc        261

Cycle        183 ----------------------------------------------------

cycle        183
Loaded          1 from        476
Stat update

Cycle        184 ----------------------------------------------------

cycle        184
On  4, writes        480   (wrE)
On  3, writes          1   (wrM)

Cycle        185 ----------------------------------------------------

cycle        185
Fetch : from Pc        261 , expanded inst : 2054b05f9000, 
rrmovl %5, %4

Cycle        186 ----------------------------------------------------

cycle        186
Decode : from Pc        261 , expanded inst : 2054b05f9000, 
rrmovl %5, %4
Exec : ppc        263

Cycle        187 ----------------------------------------------------

cycle        187
On  4, writes        480   (wrE)

Cycle        188 ----------------------------------------------------

cycle        188
Fetch : from Pc        263 , expanded inst : b05f900000aa, 
pop %5

Cycle        189 ----------------------------------------------------

cycle        189
Decode : from Pc        263 , expanded inst : b05f900000aa, 
pop %5
Exec : ppc        265

Cycle        190 ----------------------------------------------------

cycle        190
Loaded        500 from        480
Stat update

Cycle        191 ----------------------------------------------------

cycle        191
On  4, writes        484   (wrE)
On  5, writes        500   (wrM)

Cycle        192 ----------------------------------------------------

cycle        192
Fetch : from Pc        265 , expanded inst : 900000aaaaaa, 
ret

Cycle        193 ----------------------------------------------------

cycle        193
Decode : from Pc        265 , expanded inst : 900000aaaaaa, 
ret
Exec : ppc        266

Cycle        194 ----------------------------------------------------

cycle        194
Loaded        309 from        484
Stat update

Cycle        195 ----------------------------------------------------

cycle        195
On  4, writes        488   (wrE)

Cycle        196 ----------------------------------------------------

cycle        196
Fetch : from Pc        309 , expanded inst : b03fb02fb01f, 
pop %3

Cycle        197 ----------------------------------------------------

cycle        197
Decode : from Pc        309 , expanded inst : b03fb02fb01f, 
pop %3
Exec : ppc        311

Cycle        198 ----------------------------------------------------

cycle        198
Loaded          1 from        488
Stat update

Cycle        199 ----------------------------------------------------

cycle        199
On  4, writes        492   (wrE)
On  3, writes          1   (wrM)

Cycle        200 ----------------------------------------------------

cycle        200
Fetch : from Pc        311 , expanded inst : b02fb01f4001, 
pop %2

Cycle        201 ----------------------------------------------------

cycle        201
Decode : from Pc        311 , expanded inst : b02fb01f4001, 
pop %2
Exec : ppc        313

Cycle        202 ----------------------------------------------------

cycle        202
Loaded          4 from        492
Stat update

Cycle        203 ----------------------------------------------------

cycle        203
On  4, writes        496   (wrE)
On  2, writes          4   (wrM)

Cycle        204 ----------------------------------------------------

cycle        204
Fetch : from Pc        313 , expanded inst : b01f40010000, 
pop %1

Cycle        205 ----------------------------------------------------

cycle        205
Decode : from Pc        313 , expanded inst : b01f40010000, 
pop %1
Exec : ppc        315

Cycle        206 ----------------------------------------------------

cycle        206
Loaded         84 from        496
Stat update

Cycle        207 ----------------------------------------------------

cycle        207
On  4, writes        500   (wrE)
On  1, writes         84   (wrM)

Cycle        208 ----------------------------------------------------

cycle        208
Fetch : from Pc        315 , expanded inst : 400100000000, 
rmmovl %0, 00000000(%1)

Cycle        209 ----------------------------------------------------

cycle        209
Decode : from Pc        315 , expanded inst : 400100000000, 
rmmovl %0, 00000000(%1)
Exec : ppc        321

Cycle        210 ----------------------------------------------------

cycle        210
Stored          1 into         84
Stat update

Cycle        211 ----------------------------------------------------

cycle        211

Cycle        212 ----------------------------------------------------

cycle        212
Fetch : from Pc        321 , expanded inst : 602130f70f00, 
addl %2, %1

Cycle        213 ----------------------------------------------------

cycle        213
Decode : from Pc        321 , expanded inst : 602130f70f00, 
addl %2, %1
Exec : ppc        323

Cycle        214 ----------------------------------------------------

cycle        214
On  1, writes         88   (wrE)

Cycle        215 ----------------------------------------------------

cycle        215
Fetch : from Pc        323 , expanded inst : 30f70f000000, 
irmovl $0000000f,  %7

Cycle        216 ----------------------------------------------------

cycle        216
Decode : from Pc        323 , expanded inst : 30f70f000000, 
irmovl $0000000f,  %7
Exec : ppc        329

Cycle        217 ----------------------------------------------------

cycle        217
On  7, writes         15   (wrE)

Cycle        218 ----------------------------------------------------

cycle        218
Fetch : from Pc        329 , expanded inst : 30f601000000, 
irmovl $00000001,  %6

Cycle        219 ----------------------------------------------------

cycle        219
Decode : from Pc        329 , expanded inst : 30f601000000, 
irmovl $00000001,  %6
Exec : ppc        335

Cycle        220 ----------------------------------------------------

cycle        220
On  6, writes          1   (wrE)

Cycle        221 ----------------------------------------------------

cycle        221
Fetch : from Pc        335 , expanded inst : 60636137742a, 
addl %6, %3

Cycle        222 ----------------------------------------------------

cycle        222
Decode : from Pc        335 , expanded inst : 60636137742a, 
addl %6, %3
Exec : ppc        337

Cycle        223 ----------------------------------------------------

cycle        223
On  3, writes          2   (wrE)

Cycle        224 ----------------------------------------------------

cycle        224
Fetch : from Pc        337 , expanded inst : 6137742a0100, 
subl %3, %7

Cycle        225 ----------------------------------------------------

cycle        225
Decode : from Pc        337 , expanded inst : 6137742a0100, 
subl %3, %7
Exec : ppc        339

Cycle        226 ----------------------------------------------------

cycle        226
On  7, writes         13   (wrE)

Cycle        227 ----------------------------------------------------

cycle        227
Fetch : from Pc        339 , expanded inst : 742a01000030, 
jne $0000012a

Cycle        228 ----------------------------------------------------

cycle        228
Decode : from Pc        339 , expanded inst : 742a01000030, 
jne $0000012a
Exec : ppc        344

Cycle        229 ----------------------------------------------------

cycle        229

Cycle        230 ----------------------------------------------------

cycle        230
Fetch : from Pc        298 , expanded inst : a01fa02fa03f, 
push %1

Cycle        231 ----------------------------------------------------

cycle        231
Decode : from Pc        298 , expanded inst : a01fa02fa03f, 
push %1
Exec : ppc        300

Cycle        232 ----------------------------------------------------

cycle        232
Stored         88 into        496
Stat update

Cycle        233 ----------------------------------------------------

cycle        233
On  4, writes        496   (wrE)

Cycle        234 ----------------------------------------------------

cycle        234
Fetch : from Pc        300 , expanded inst : a02fa03f80c8, 
push %2

Cycle        235 ----------------------------------------------------

cycle        235
Decode : from Pc        300 , expanded inst : a02fa03f80c8, 
push %2
Exec : ppc        302

Cycle        236 ----------------------------------------------------

cycle        236
Stored          4 into        492
Stat update

Cycle        237 ----------------------------------------------------

cycle        237
On  4, writes        492   (wrE)

Cycle        238 ----------------------------------------------------

cycle        238
Fetch : from Pc        302 , expanded inst : a03f80c80000, 
push %3

Cycle        239 ----------------------------------------------------

cycle        239
Decode : from Pc        302 , expanded inst : a03f80c80000, 
push %3
Exec : ppc        304

Cycle        240 ----------------------------------------------------

cycle        240
Stored          2 into        488
Stat update

Cycle        241 ----------------------------------------------------

cycle        241
On  4, writes        488   (wrE)

Cycle        242 ----------------------------------------------------

cycle        242
Fetch : from Pc        304 , expanded inst : 80c8000000b0, 
call 000000c8

Cycle        243 ----------------------------------------------------

cycle        243
Decode : from Pc        304 , expanded inst : 80c8000000b0, 
call 000000c8
Exec : ppc        309

Cycle        244 ----------------------------------------------------

cycle        244
Stored        309 into        484
Stat update

Cycle        245 ----------------------------------------------------

cycle        245
On  4, writes        484   (wrE)

Cycle        246 ----------------------------------------------------

cycle        246
Fetch : from Pc        200 , expanded inst : a05f2045a03f, 
push %5

Cycle        247 ----------------------------------------------------

cycle        247
Decode : from Pc        200 , expanded inst : a05f2045a03f, 
push %5
Exec : ppc        202

Cycle        248 ----------------------------------------------------

cycle        248
Stored        500 into        480
Stat update

Cycle        249 ----------------------------------------------------

cycle        249
On  4, writes        480   (wrE)

Cycle        250 ----------------------------------------------------

cycle        250
Fetch : from Pc        202 , expanded inst : 2045a03fa06f, 
rrmovl %4, %5

Cycle        251 ----------------------------------------------------

cycle        251
Decode : from Pc        202 , expanded inst : 2045a03fa06f, 
rrmovl %4, %5
Exec : ppc        204

Cycle        252 ----------------------------------------------------

cycle        252
On  5, writes        480   (wrE)

Cycle        253 ----------------------------------------------------

cycle        253
Fetch : from Pc        204 , expanded inst : a03fa06f5035, 
push %3

Cycle        254 ----------------------------------------------------

cycle        254
Decode : from Pc        204 , expanded inst : a03fa06f5035, 
push %3
Exec : ppc        206

Cycle        255 ----------------------------------------------------

cycle        255
Stored          2 into        476
Stat update

Cycle        256 ----------------------------------------------------

cycle        256
On  4, writes        476   (wrE)

Cycle        257 ----------------------------------------------------

cycle        257
Fetch : from Pc        206 , expanded inst : a06f50350800, 
push %6

Cycle        258 ----------------------------------------------------

cycle        258
Decode : from Pc        206 , expanded inst : a06f50350800, 
push %6
Exec : ppc        208

Cycle        259 ----------------------------------------------------

cycle        259
Stored          1 into        472
Stat update

Cycle        260 ----------------------------------------------------

cycle        260
On  4, writes        472   (wrE)

Cycle        261 ----------------------------------------------------

cycle        261
Fetch : from Pc        208 , expanded inst : 503508000000, 
mrmovl 00000008(%5), %3

Cycle        262 ----------------------------------------------------

cycle        262
Decode : from Pc        208 , expanded inst : 503508000000, 
mrmovl 00000008(%5), %3
Exec : ppc        214

Cycle        263 ----------------------------------------------------

cycle        263
Loaded          2 from        488
Stat update

Cycle        264 ----------------------------------------------------

cycle        264
On  3, writes          2   (wrM)

Cycle        265 ----------------------------------------------------

cycle        265
Fetch : from Pc        214 , expanded inst : 630062337101, 
xorl %0, %0

Cycle        266 ----------------------------------------------------

cycle        266
Decode : from Pc        214 , expanded inst : 630062337101, 
xorl %0, %0
Exec : ppc        216

Cycle        267 ----------------------------------------------------

cycle        267
On  0, writes          0   (wrE)

Cycle        268 ----------------------------------------------------

cycle        268
Fetch : from Pc        216 , expanded inst : 623371010100, 
andl %3, %3

Cycle        269 ----------------------------------------------------

cycle        269
Decode : from Pc        216 , expanded inst : 623371010100, 
andl %3, %3
Exec : ppc        218

Cycle        270 ----------------------------------------------------

cycle        270
On  3, writes          2   (wrE)

Cycle        271 ----------------------------------------------------

cycle        271
Fetch : from Pc        218 , expanded inst : 710101000020, 
jle $00000101

Cycle        272 ----------------------------------------------------

cycle        272
Decode : from Pc        218 , expanded inst : 710101000020, 
jle $00000101
Exec : ppc        223

Cycle        273 ----------------------------------------------------

cycle        273

Cycle        274 ----------------------------------------------------

cycle        274
Fetch : from Pc        223 , expanded inst : 203130f00100, 
rrmovl %3, %1

Cycle        275 ----------------------------------------------------

cycle        275
Decode : from Pc        223 , expanded inst : 203130f00100, 
rrmovl %3, %1
Exec : ppc        225

Cycle        276 ----------------------------------------------------

cycle        276
On  1, writes          2   (wrE)

Cycle        277 ----------------------------------------------------

cycle        277
Fetch : from Pc        225 , expanded inst : 30f001000000, 
irmovl $00000001,  %0

Cycle        278 ----------------------------------------------------

cycle        278
Decode : from Pc        225 , expanded inst : 30f001000000, 
irmovl $00000001,  %0
Exec : ppc        231

Cycle        279 ----------------------------------------------------

cycle        279
On  0, writes          1   (wrE)

Cycle        280 ----------------------------------------------------

cycle        280
Fetch : from Pc        231 , expanded inst : 610173010100, 
subl %0, %1

Cycle        281 ----------------------------------------------------

cycle        281
Decode : from Pc        231 , expanded inst : 610173010100, 
subl %0, %1
Exec : ppc        233

Cycle        282 ----------------------------------------------------

cycle        282
On  1, writes          1   (wrE)

Cycle        283 ----------------------------------------------------

cycle        283
Fetch : from Pc        233 , expanded inst : 7301010000a0, 
je $00000101

Cycle        284 ----------------------------------------------------

cycle        284
Decode : from Pc        233 , expanded inst : 7301010000a0, 
je $00000101
Exec : ppc        238

Cycle        285 ----------------------------------------------------

cycle        285

Cycle        286 ----------------------------------------------------

cycle        286
Fetch : from Pc        238 , expanded inst : a01f80c80000, 
push %1

Cycle        287 ----------------------------------------------------

cycle        287
Decode : from Pc        238 , expanded inst : a01f80c80000, 
push %1
Exec : ppc        240

Cycle        288 ----------------------------------------------------

cycle        288
Stored          1 into        468
Stat update

Cycle        289 ----------------------------------------------------

cycle        289
On  4, writes        468   (wrE)

Cycle        290 ----------------------------------------------------

cycle        290
Fetch : from Pc        240 , expanded inst : 80c8000000b0, 
call 000000c8

Cycle        291 ----------------------------------------------------

cycle        291
Decode : from Pc        240 , expanded inst : 80c8000000b0, 
call 000000c8
Exec : ppc        245

Cycle        292 ----------------------------------------------------

cycle        292
Stored        245 into        464
Stat update

Cycle        293 ----------------------------------------------------

cycle        293
On  4, writes        464   (wrE)

Cycle        294 ----------------------------------------------------

cycle        294
Fetch : from Pc        200 , expanded inst : a05f2045a03f, 
push %5

Cycle        295 ----------------------------------------------------

cycle        295
Decode : from Pc        200 , expanded inst : a05f2045a03f, 
push %5
Exec : ppc        202

Cycle        296 ----------------------------------------------------

cycle        296
Stored        480 into        460
Stat update

Cycle        297 ----------------------------------------------------

cycle        297
On  4, writes        460   (wrE)

Cycle        298 ----------------------------------------------------

cycle        298
Fetch : from Pc        202 , expanded inst : 2045a03fa06f, 
rrmovl %4, %5

Cycle        299 ----------------------------------------------------

cycle        299
Decode : from Pc        202 , expanded inst : 2045a03fa06f, 
rrmovl %4, %5
Exec : ppc        204

Cycle        300 ----------------------------------------------------

cycle        300
On  5, writes        460   (wrE)

Cycle        301 ----------------------------------------------------

cycle        301
Fetch : from Pc        204 , expanded inst : a03fa06f5035, 
push %3

Cycle        302 ----------------------------------------------------

cycle        302
Decode : from Pc        204 , expanded inst : a03fa06f5035, 
push %3
Exec : ppc        206

Cycle        303 ----------------------------------------------------

cycle        303
Stored          2 into        456
Stat update

Cycle        304 ----------------------------------------------------

cycle        304
On  4, writes        456   (wrE)

Cycle        305 ----------------------------------------------------

cycle        305
Fetch : from Pc        206 , expanded inst : a06f50350800, 
push %6

Cycle        306 ----------------------------------------------------

cycle        306
Decode : from Pc        206 , expanded inst : a06f50350800, 
push %6
Exec : ppc        208

Cycle        307 ----------------------------------------------------

cycle        307
Stored          1 into        452
Stat update

Cycle        308 ----------------------------------------------------

cycle        308
On  4, writes        452   (wrE)

Cycle        309 ----------------------------------------------------

cycle        309
Fetch : from Pc        208 , expanded inst : 503508000000, 
mrmovl 00000008(%5), %3

Cycle        310 ----------------------------------------------------

cycle        310
Decode : from Pc        208 , expanded inst : 503508000000, 
mrmovl 00000008(%5), %3
Exec : ppc        214

Cycle        311 ----------------------------------------------------

cycle        311
Loaded          1 from        468
Stat update

Cycle        312 ----------------------------------------------------

cycle        312
On  3, writes          1   (wrM)

Cycle        313 ----------------------------------------------------

cycle        313
Fetch : from Pc        214 , expanded inst : 630062337101, 
xorl %0, %0

Cycle        314 ----------------------------------------------------

cycle        314
Decode : from Pc        214 , expanded inst : 630062337101, 
xorl %0, %0
Exec : ppc        216

Cycle        315 ----------------------------------------------------

cycle        315
On  0, writes          0   (wrE)

Cycle        316 ----------------------------------------------------

cycle        316
Fetch : from Pc        216 , expanded inst : 623371010100, 
andl %3, %3

Cycle        317 ----------------------------------------------------

cycle        317
Decode : from Pc        216 , expanded inst : 623371010100, 
andl %3, %3
Exec : ppc        218

Cycle        318 ----------------------------------------------------

cycle        318
On  3, writes          1   (wrE)

Cycle        319 ----------------------------------------------------

cycle        319
Fetch : from Pc        218 , expanded inst : 710101000020, 
jle $00000101

Cycle        320 ----------------------------------------------------

cycle        320
Decode : from Pc        218 , expanded inst : 710101000020, 
jle $00000101
Exec : ppc        223

Cycle        321 ----------------------------------------------------

cycle        321

Cycle        322 ----------------------------------------------------

cycle        322
Fetch : from Pc        223 , expanded inst : 203130f00100, 
rrmovl %3, %1

Cycle        323 ----------------------------------------------------

cycle        323
Decode : from Pc        223 , expanded inst : 203130f00100, 
rrmovl %3, %1
Exec : ppc        225

Cycle        324 ----------------------------------------------------

cycle        324
On  1, writes          1   (wrE)

Cycle        325 ----------------------------------------------------

cycle        325
Fetch : from Pc        225 , expanded inst : 30f001000000, 
irmovl $00000001,  %0

Cycle        326 ----------------------------------------------------

cycle        326
Decode : from Pc        225 , expanded inst : 30f001000000, 
irmovl $00000001,  %0
Exec : ppc        231

Cycle        327 ----------------------------------------------------

cycle        327
On  0, writes          1   (wrE)

Cycle        328 ----------------------------------------------------

cycle        328
Fetch : from Pc        231 , expanded inst : 610173010100, 
subl %0, %1

Cycle        329 ----------------------------------------------------

cycle        329
Decode : from Pc        231 , expanded inst : 610173010100, 
subl %0, %1
Exec : ppc        233

Cycle        330 ----------------------------------------------------

cycle        330
On  1, writes          0   (wrE)

Cycle        331 ----------------------------------------------------

cycle        331
Fetch : from Pc        233 , expanded inst : 7301010000a0, 
je $00000101

Cycle        332 ----------------------------------------------------

cycle        332
Decode : from Pc        233 , expanded inst : 7301010000a0, 
je $00000101
Exec : ppc        238

Cycle        333 ----------------------------------------------------

cycle        333

Cycle        334 ----------------------------------------------------

cycle        334
Fetch : from Pc        257 , expanded inst : b06fb03f2054, 
pop %6

Cycle        335 ----------------------------------------------------

cycle        335
Decode : from Pc        257 , expanded inst : b06fb03f2054, 
pop %6
Exec : ppc        259

Cycle        336 ----------------------------------------------------

cycle        336
Loaded          1 from        452
Stat update

Cycle        337 ----------------------------------------------------

cycle        337
On  4, writes        456   (wrE)
On  6, writes          1   (wrM)

Cycle        338 ----------------------------------------------------

cycle        338
Fetch : from Pc        259 , expanded inst : b03f2054b05f, 
pop %3

Cycle        339 ----------------------------------------------------

cycle        339
Decode : from Pc        259 , expanded inst : b03f2054b05f, 
pop %3
Exec : ppc        261

Cycle        340 ----------------------------------------------------

cycle        340
Loaded          2 from        456
Stat update

Cycle        341 ----------------------------------------------------

cycle        341
On  4, writes        460   (wrE)
On  3, writes          2   (wrM)

Cycle        342 ----------------------------------------------------

cycle        342
Fetch : from Pc        261 , expanded inst : 2054b05f9000, 
rrmovl %5, %4

Cycle        343 ----------------------------------------------------

cycle        343
Decode : from Pc        261 , expanded inst : 2054b05f9000, 
rrmovl %5, %4
Exec : ppc        263

Cycle        344 ----------------------------------------------------

cycle        344
On  4, writes        460   (wrE)

Cycle        345 ----------------------------------------------------

cycle        345
Fetch : from Pc        263 , expanded inst : b05f900000aa, 
pop %5

Cycle        346 ----------------------------------------------------

cycle        346
Decode : from Pc        263 , expanded inst : b05f900000aa, 
pop %5
Exec : ppc        265

Cycle        347 ----------------------------------------------------

cycle        347
Loaded        480 from        460
Stat update

Cycle        348 ----------------------------------------------------

cycle        348
On  4, writes        464   (wrE)
On  5, writes        480   (wrM)

Cycle        349 ----------------------------------------------------

cycle        349
Fetch : from Pc        265 , expanded inst : 900000aaaaaa, 
ret

Cycle        350 ----------------------------------------------------

cycle        350
Decode : from Pc        265 , expanded inst : 900000aaaaaa, 
ret
Exec : ppc        266

Cycle        351 ----------------------------------------------------

cycle        351
Loaded        245 from        464
Stat update

Cycle        352 ----------------------------------------------------

cycle        352
On  4, writes        468   (wrE)

Cycle        353 ----------------------------------------------------

cycle        353
Fetch : from Pc        245 , expanded inst : b01f30f30100, 
pop %1

Cycle        354 ----------------------------------------------------

cycle        354
Decode : from Pc        245 , expanded inst : b01f30f30100, 
pop %1
Exec : ppc        247

Cycle        355 ----------------------------------------------------

cycle        355
Loaded          1 from        468
Stat update

Cycle        356 ----------------------------------------------------

cycle        356
On  4, writes        472   (wrE)
On  1, writes          1   (wrM)

Cycle        357 ----------------------------------------------------

cycle        357
Fetch : from Pc        247 , expanded inst : 30f301000000, 
irmovl $00000001,  %3

Cycle        358 ----------------------------------------------------

cycle        358
Decode : from Pc        247 , expanded inst : 30f301000000, 
irmovl $00000001,  %3
Exec : ppc        253

Cycle        359 ----------------------------------------------------

cycle        359
On  3, writes          1   (wrE)

Cycle        360 ----------------------------------------------------

cycle        360
Fetch : from Pc        253 , expanded inst : 60006030b06f, 
addl %0, %0

Cycle        361 ----------------------------------------------------

cycle        361
Decode : from Pc        253 , expanded inst : 60006030b06f, 
addl %0, %0
Exec : ppc        255

Cycle        362 ----------------------------------------------------

cycle        362
On  0, writes          2   (wrE)

Cycle        363 ----------------------------------------------------

cycle        363
Fetch : from Pc        255 , expanded inst : 6030b06fb03f, 
addl %3, %0

Cycle        364 ----------------------------------------------------

cycle        364
Decode : from Pc        255 , expanded inst : 6030b06fb03f, 
addl %3, %0
Exec : ppc        257

Cycle        365 ----------------------------------------------------

cycle        365
On  0, writes          3   (wrE)

Cycle        366 ----------------------------------------------------

cycle        366
Fetch : from Pc        257 , expanded inst : b06fb03f2054, 
pop %6

Cycle        367 ----------------------------------------------------

cycle        367
Decode : from Pc        257 , expanded inst : b06fb03f2054, 
pop %6
Exec : ppc        259

Cycle        368 ----------------------------------------------------

cycle        368
Loaded          1 from        472
Stat update

Cycle        369 ----------------------------------------------------

cycle        369
On  4, writes        476   (wrE)
On  6, writes          1   (wrM)

Cycle        370 ----------------------------------------------------

cycle        370
Fetch : from Pc        259 , expanded inst : b03f2054b05f, 
pop %3

Cycle        371 ----------------------------------------------------

cycle        371
Decode : from Pc        259 , expanded inst : b03f2054b05f, 
pop %3
Exec : ppc        261

Cycle        372 ----------------------------------------------------

cycle        372
Loaded          2 from        476
Stat update

Cycle        373 ----------------------------------------------------

cycle        373
On  4, writes        480   (wrE)
On  3, writes          2   (wrM)

Cycle        374 ----------------------------------------------------

cycle        374
Fetch : from Pc        261 , expanded inst : 2054b05f9000, 
rrmovl %5, %4

Cycle        375 ----------------------------------------------------

cycle        375
Decode : from Pc        261 , expanded inst : 2054b05f9000, 
rrmovl %5, %4
Exec : ppc        263

Cycle        376 ----------------------------------------------------

cycle        376
On  4, writes        480   (wrE)

Cycle        377 ----------------------------------------------------

cycle        377
Fetch : from Pc        263 , expanded inst : b05f900000aa, 
pop %5

Cycle        378 ----------------------------------------------------

cycle        378
Decode : from Pc        263 , expanded inst : b05f900000aa, 
pop %5
Exec : ppc        265

Cycle        379 ----------------------------------------------------

cycle        379
Loaded        500 from        480
Stat update

Cycle        380 ----------------------------------------------------

cycle        380
On  4, writes        484   (wrE)
On  5, writes        500   (wrM)

Cycle        381 ----------------------------------------------------

cycle        381
Fetch : from Pc        265 , expanded inst : 900000aaaaaa, 
ret

Cycle        382 ----------------------------------------------------

cycle        382
Decode : from Pc        265 , expanded inst : 900000aaaaaa, 
ret
Exec : ppc        266

Cycle        383 ----------------------------------------------------

cycle        383
Loaded        309 from        484
Stat update

Cycle        384 ----------------------------------------------------

cycle        384
On  4, writes        488   (wrE)

Cycle        385 ----------------------------------------------------

cycle        385
Fetch : from Pc        309 , expanded inst : b03fb02fb01f, 
pop %3

Cycle        386 ----------------------------------------------------

cycle        386
Decode : from Pc        309 , expanded inst : b03fb02fb01f, 
pop %3
Exec : ppc        311

Cycle        387 ----------------------------------------------------

cycle        387
Loaded          2 from        488
Stat update

Cycle        388 ----------------------------------------------------

cycle        388
On  4, writes        492   (wrE)
On  3, writes          2   (wrM)

Cycle        389 ----------------------------------------------------

cycle        389
Fetch : from Pc        311 , expanded inst : b02fb01f4001, 
pop %2

Cycle        390 ----------------------------------------------------

cycle        390
Decode : from Pc        311 , expanded inst : b02fb01f4001, 
pop %2
Exec : ppc        313

Cycle        391 ----------------------------------------------------

cycle        391
Loaded          4 from        492
Stat update

Cycle        392 ----------------------------------------------------

cycle        392
On  4, writes        496   (wrE)
On  2, writes          4   (wrM)

Cycle        393 ----------------------------------------------------

cycle        393
Fetch : from Pc        313 , expanded inst : b01f40010000, 
pop %1

Cycle        394 ----------------------------------------------------

cycle        394
Decode : from Pc        313 , expanded inst : b01f40010000, 
pop %1
Exec : ppc        315

Cycle        395 ----------------------------------------------------

cycle        395
Loaded         88 from        496
Stat update

Cycle        396 ----------------------------------------------------

cycle        396
On  4, writes        500   (wrE)
On  1, writes         88   (wrM)

Cycle        397 ----------------------------------------------------

cycle        397
Fetch : from Pc        315 , expanded inst : 400100000000, 
rmmovl %0, 00000000(%1)

Cycle        398 ----------------------------------------------------

cycle        398
Decode : from Pc        315 , expanded inst : 400100000000, 
rmmovl %0, 00000000(%1)
Exec : ppc        321

Cycle        399 ----------------------------------------------------

cycle        399
Stored          3 into         88
Stat update

Cycle        400 ----------------------------------------------------

cycle        400

Cycle        401 ----------------------------------------------------

cycle        401
Fetch : from Pc        321 , expanded inst : 602130f70f00, 
addl %2, %1

Cycle        402 ----------------------------------------------------

cycle        402
Decode : from Pc        321 , expanded inst : 602130f70f00, 
addl %2, %1
Exec : ppc        323

Cycle        403 ----------------------------------------------------

cycle        403
On  1, writes         92   (wrE)

Cycle        404 ----------------------------------------------------

cycle        404
Fetch : from Pc        323 , expanded inst : 30f70f000000, 
irmovl $0000000f,  %7

Cycle        405 ----------------------------------------------------

cycle        405
Decode : from Pc        323 , expanded inst : 30f70f000000, 
irmovl $0000000f,  %7
Exec : ppc        329

Cycle        406 ----------------------------------------------------

cycle        406
On  7, writes         15   (wrE)

Cycle        407 ----------------------------------------------------

cycle        407
Fetch : from Pc        329 , expanded inst : 30f601000000, 
irmovl $00000001,  %6

Cycle        408 ----------------------------------------------------

cycle        408
Decode : from Pc        329 , expanded inst : 30f601000000, 
irmovl $00000001,  %6
Exec : ppc        335

Cycle        409 ----------------------------------------------------

cycle        409
On  6, writes          1   (wrE)

Cycle        410 ----------------------------------------------------

cycle        410
Fetch : from Pc        335 , expanded inst : 60636137742a, 
addl %6, %3

Cycle        411 ----------------------------------------------------

cycle        411
Decode : from Pc        335 , expanded inst : 60636137742a, 
addl %6, %3
Exec : ppc        337

Cycle        412 ----------------------------------------------------

cycle        412
On  3, writes          3   (wrE)

Cycle        413 ----------------------------------------------------

cycle        413
Fetch : from Pc        337 , expanded inst : 6137742a0100, 
subl %3, %7

Cycle        414 ----------------------------------------------------

cycle        414
Decode : from Pc        337 , expanded inst : 6137742a0100, 
subl %3, %7
Exec : ppc        339

Cycle        415 ----------------------------------------------------

cycle        415
On  7, writes         12   (wrE)

Cycle        416 ----------------------------------------------------

cycle        416
Fetch : from Pc        339 , expanded inst : 742a01000030, 
jne $0000012a

Cycle        417 ----------------------------------------------------

cycle        417
Decode : from Pc        339 , expanded inst : 742a01000030, 
jne $0000012a
Exec : ppc        344

Cycle        418 ----------------------------------------------------

cycle        418

Cycle        419 ----------------------------------------------------

cycle        419
Fetch : from Pc        298 , expanded inst : a01fa02fa03f, 
push %1

Cycle        420 ----------------------------------------------------

cycle        420
Decode : from Pc        298 , expanded inst : a01fa02fa03f, 
push %1
Exec : ppc        300

Cycle        421 ----------------------------------------------------

cycle        421
Stored         92 into        496
Stat update

Cycle        422 ----------------------------------------------------

cycle        422
On  4, writes        496   (wrE)

Cycle        423 ----------------------------------------------------

cycle        423
Fetch : from Pc        300 , expanded inst : a02fa03f80c8, 
push %2

Cycle        424 ----------------------------------------------------

cycle        424
Decode : from Pc        300 , expanded inst : a02fa03f80c8, 
push %2
Exec : ppc        302

Cycle        425 ----------------------------------------------------

cycle        425
Stored          4 into        492
Stat update

Cycle        426 ----------------------------------------------------

cycle        426
On  4, writes        492   (wrE)

Cycle        427 ----------------------------------------------------

cycle        427
Fetch : from Pc        302 , expanded inst : a03f80c80000, 
push %3

Cycle        428 ----------------------------------------------------

cycle        428
Decode : from Pc        302 , expanded inst : a03f80c80000, 
push %3
Exec : ppc        304

Cycle        429 ----------------------------------------------------

cycle        429
Stored          3 into        488
Stat update

Cycle        430 ----------------------------------------------------

cycle        430
On  4, writes        488   (wrE)

Cycle        431 ----------------------------------------------------

cycle        431
Fetch : from Pc        304 , expanded inst : 80c8000000b0, 
call 000000c8

Cycle        432 ----------------------------------------------------

cycle        432
Decode : from Pc        304 , expanded inst : 80c8000000b0, 
call 000000c8
Exec : ppc        309

Cycle        433 ----------------------------------------------------

cycle        433
Stored        309 into        484
Stat update

Cycle        434 ----------------------------------------------------

cycle        434
On  4, writes        484   (wrE)

Cycle        435 ----------------------------------------------------

cycle        435
Fetch : from Pc        200 , expanded inst : a05f2045a03f, 
push %5

Cycle        436 ----------------------------------------------------

cycle        436
Decode : from Pc        200 , expanded inst : a05f2045a03f, 
push %5
Exec : ppc        202

Cycle        437 ----------------------------------------------------

cycle        437
Stored        500 into        480
Stat update

Cycle        438 ----------------------------------------------------

cycle        438
On  4, writes        480   (wrE)

Cycle        439 ----------------------------------------------------

cycle        439
Fetch : from Pc        202 , expanded inst : 2045a03fa06f, 
rrmovl %4, %5

Cycle        440 ----------------------------------------------------

cycle        440
Decode : from Pc        202 , expanded inst : 2045a03fa06f, 
rrmovl %4, %5
Exec : ppc        204

Cycle        441 ----------------------------------------------------

cycle        441
On  5, writes        480   (wrE)

Cycle        442 ----------------------------------------------------

cycle        442
Fetch : from Pc        204 , expanded inst : a03fa06f5035, 
push %3

Cycle        443 ----------------------------------------------------

cycle        443
Decode : from Pc        204 , expanded inst : a03fa06f5035, 
push %3
Exec : ppc        206

Cycle        444 ----------------------------------------------------

cycle        444
Stored          3 into        476
Stat update

Cycle        445 ----------------------------------------------------

cycle        445
On  4, writes        476   (wrE)

Cycle        446 ----------------------------------------------------

cycle        446
Fetch : from Pc        206 , expanded inst : a06f50350800, 
push %6

Cycle        447 ----------------------------------------------------

cycle        447
Decode : from Pc        206 , expanded inst : a06f50350800, 
push %6
Exec : ppc        208

Cycle        448 ----------------------------------------------------

cycle        448
Stored          1 into        472
Stat update

Cycle        449 ----------------------------------------------------

cycle        449
On  4, writes        472   (wrE)

Cycle        450 ----------------------------------------------------

cycle        450
Fetch : from Pc        208 , expanded inst : 503508000000, 
mrmovl 00000008(%5), %3

Cycle        451 ----------------------------------------------------

cycle        451
Decode : from Pc        208 , expanded inst : 503508000000, 
mrmovl 00000008(%5), %3
Exec : ppc        214

Cycle        452 ----------------------------------------------------

cycle        452
Loaded          3 from        488
Stat update

Cycle        453 ----------------------------------------------------

cycle        453
On  3, writes          3   (wrM)

Cycle        454 ----------------------------------------------------

cycle        454
Fetch : from Pc        214 , expanded inst : 630062337101, 
xorl %0, %0

Cycle        455 ----------------------------------------------------

cycle        455
Decode : from Pc        214 , expanded inst : 630062337101, 
xorl %0, %0
Exec : ppc        216

Cycle        456 ----------------------------------------------------

cycle        456
On  0, writes          0   (wrE)

Cycle        457 ----------------------------------------------------

cycle        457
Fetch : from Pc        216 , expanded inst : 623371010100, 
andl %3, %3

Cycle        458 ----------------------------------------------------

cycle        458
Decode : from Pc        216 , expanded inst : 623371010100, 
andl %3, %3
Exec : ppc        218

Cycle        459 ----------------------------------------------------

cycle        459
On  3, writes          3   (wrE)

Cycle        460 ----------------------------------------------------

cycle        460
Fetch : from Pc        218 , expanded inst : 710101000020, 
jle $00000101

Cycle        461 ----------------------------------------------------

cycle        461
Decode : from Pc        218 , expanded inst : 710101000020, 
jle $00000101
Exec : ppc        223

Cycle        462 ----------------------------------------------------

cycle        462

Cycle        463 ----------------------------------------------------

cycle        463
Fetch : from Pc        223 , expanded inst : 203130f00100, 
rrmovl %3, %1

Cycle        464 ----------------------------------------------------

cycle        464
Decode : from Pc        223 , expanded inst : 203130f00100, 
rrmovl %3, %1
Exec : ppc        225

Cycle        465 ----------------------------------------------------

cycle        465
On  1, writes          3   (wrE)

Cycle        466 ----------------------------------------------------

cycle        466
Fetch : from Pc        225 , expanded inst : 30f001000000, 
irmovl $00000001,  %0

Cycle        467 ----------------------------------------------------

cycle        467
Decode : from Pc        225 , expanded inst : 30f001000000, 
irmovl $00000001,  %0
Exec : ppc        231

Cycle        468 ----------------------------------------------------

cycle        468
On  0, writes          1   (wrE)

Cycle        469 ----------------------------------------------------

cycle        469
Fetch : from Pc        231 , expanded inst : 610173010100, 
subl %0, %1

Cycle        470 ----------------------------------------------------

cycle        470
Decode : from Pc        231 , expanded inst : 610173010100, 
subl %0, %1
Exec : ppc        233

Cycle        471 ----------------------------------------------------

cycle        471
On  1, writes          2   (wrE)

Cycle        472 ----------------------------------------------------

cycle        472
Fetch : from Pc        233 , expanded inst : 7301010000a0, 
je $00000101

Cycle        473 ----------------------------------------------------

cycle        473
Decode : from Pc        233 , expanded inst : 7301010000a0, 
je $00000101
Exec : ppc        238

Cycle        474 ----------------------------------------------------

cycle        474

Cycle        475 ----------------------------------------------------

cycle        475
Fetch : from Pc        238 , expanded inst : a01f80c80000, 
push %1

Cycle        476 ----------------------------------------------------

cycle        476
Decode : from Pc        238 , expanded inst : a01f80c80000, 
push %1
Exec : ppc        240

Cycle        477 ----------------------------------------------------

cycle        477
Stored          2 into        468
Stat update

Cycle        478 ----------------------------------------------------

cycle        478
On  4, writes        468   (wrE)

Cycle        479 ----------------------------------------------------

cycle        479
Fetch : from Pc        240 , expanded inst : 80c8000000b0, 
call 000000c8

Cycle        480 ----------------------------------------------------

cycle        480
Decode : from Pc        240 , expanded inst : 80c8000000b0, 
call 000000c8
Exec : ppc        245

Cycle        481 ----------------------------------------------------

cycle        481
Stored        245 into        464
Stat update

Cycle        482 ----------------------------------------------------

cycle        482
On  4, writes        464   (wrE)

Cycle        483 ----------------------------------------------------

cycle        483
Fetch : from Pc        200 , expanded inst : a05f2045a03f, 
push %5

Cycle        484 ----------------------------------------------------

cycle        484
Decode : from Pc        200 , expanded inst : a05f2045a03f, 
push %5
Exec : ppc        202

Cycle        485 ----------------------------------------------------

cycle        485
Stored        480 into        460
Stat update

Cycle        486 ----------------------------------------------------

cycle        486
On  4, writes        460   (wrE)

Cycle        487 ----------------------------------------------------

cycle        487
Fetch : from Pc        202 , expanded inst : 2045a03fa06f, 
rrmovl %4, %5

Cycle        488 ----------------------------------------------------

cycle        488
Decode : from Pc        202 , expanded inst : 2045a03fa06f, 
rrmovl %4, %5
Exec : ppc        204

Cycle        489 ----------------------------------------------------

cycle        489
On  5, writes        460   (wrE)

Cycle        490 ----------------------------------------------------

cycle        490
Fetch : from Pc        204 , expanded inst : a03fa06f5035, 
push %3

Cycle        491 ----------------------------------------------------

cycle        491
Decode : from Pc        204 , expanded inst : a03fa06f5035, 
push %3
Exec : ppc        206

Cycle        492 ----------------------------------------------------

cycle        492
Stored          3 into        456
Stat update

Cycle        493 ----------------------------------------------------

cycle        493
On  4, writes        456   (wrE)

Cycle        494 ----------------------------------------------------

cycle        494
Fetch : from Pc        206 , expanded inst : a06f50350800, 
push %6

Cycle        495 ----------------------------------------------------

cycle        495
Decode : from Pc        206 , expanded inst : a06f50350800, 
push %6
Exec : ppc        208

Cycle        496 ----------------------------------------------------

cycle        496
Stored          1 into        452
Stat update

Cycle        497 ----------------------------------------------------

cycle        497
On  4, writes        452   (wrE)

Cycle        498 ----------------------------------------------------

cycle        498
Fetch : from Pc        208 , expanded inst : 503508000000, 
mrmovl 00000008(%5), %3

Cycle        499 ----------------------------------------------------

cycle        499
Decode : from Pc        208 , expanded inst : 503508000000, 
mrmovl 00000008(%5), %3
Exec : ppc        214

Cycle        500 ----------------------------------------------------

cycle        500
Loaded          2 from        468
Stat update

Cycle        501 ----------------------------------------------------

cycle        501
On  3, writes          2   (wrM)

Cycle        502 ----------------------------------------------------

cycle        502
Fetch : from Pc        214 , expanded inst : 630062337101, 
xorl %0, %0

Cycle        503 ----------------------------------------------------

cycle        503
Decode : from Pc        214 , expanded inst : 630062337101, 
xorl %0, %0
Exec : ppc        216

Cycle        504 ----------------------------------------------------

cycle        504
On  0, writes          0   (wrE)

Cycle        505 ----------------------------------------------------

cycle        505
Fetch : from Pc        216 , expanded inst : 623371010100, 
andl %3, %3

Cycle        506 ----------------------------------------------------

cycle        506
Decode : from Pc        216 , expanded inst : 623371010100, 
andl %3, %3
Exec : ppc        218

Cycle        507 ----------------------------------------------------

cycle        507
On  3, writes          2   (wrE)

Cycle        508 ----------------------------------------------------

cycle        508
Fetch : from Pc        218 , expanded inst : 710101000020, 
jle $00000101

Cycle        509 ----------------------------------------------------

cycle        509
Decode : from Pc        218 , expanded inst : 710101000020, 
jle $00000101
Exec : ppc        223

Cycle        510 ----------------------------------------------------

cycle        510

Cycle        511 ----------------------------------------------------

cycle        511
Fetch : from Pc        223 , expanded inst : 203130f00100, 
rrmovl %3, %1

Cycle        512 ----------------------------------------------------

cycle        512
Decode : from Pc        223 , expanded inst : 203130f00100, 
rrmovl %3, %1
Exec : ppc        225

Cycle        513 ----------------------------------------------------

cycle        513
On  1, writes          2   (wrE)

Cycle        514 ----------------------------------------------------

cycle        514
Fetch : from Pc        225 , expanded inst : 30f001000000, 
irmovl $00000001,  %0

Cycle        515 ----------------------------------------------------

cycle        515
Decode : from Pc        225 , expanded inst : 30f001000000, 
irmovl $00000001,  %0
Exec : ppc        231

Cycle        516 ----------------------------------------------------

cycle        516
On  0, writes          1   (wrE)

Cycle        517 ----------------------------------------------------

cycle        517
Fetch : from Pc        231 , expanded inst : 610173010100, 
subl %0, %1

[...]
addl %7, %1

Cycle       9339 ----------------------------------------------------

cycle       9339
Decode : from Pc        387 , expanded inst : 6071607230f6, 
addl %7, %1
Exec : ppc        389

Cycle       9340 ----------------------------------------------------

cycle       9340
On  1, writes        128   (wrE)

Cycle       9341 ----------------------------------------------------

cycle       9341
Fetch : from Pc        389 , expanded inst : 607230f60100, 
addl %7, %2

Cycle       9342 ----------------------------------------------------

cycle       9342
Decode : from Pc        389 , expanded inst : 607230f60100, 
addl %7, %2
Exec : ppc        391

Cycle       9343 ----------------------------------------------------

cycle       9343
On  2, writes         68   (wrE)

Cycle       9344 ----------------------------------------------------

cycle       9344
Fetch : from Pc        391 , expanded inst : 30f601000000, 
irmovl $00000001,  %6

Cycle       9345 ----------------------------------------------------

cycle       9345
Decode : from Pc        391 , expanded inst : 30f601000000, 
irmovl $00000001,  %6
Exec : ppc        397

Cycle       9346 ----------------------------------------------------

cycle       9346
On  6, writes          1   (wrE)

Cycle       9347 ----------------------------------------------------

cycle       9347
Fetch : from Pc        397 , expanded inst : 606330f60f00, 
addl %6, %3

Cycle       9348 ----------------------------------------------------

cycle       9348
Decode : from Pc        397 , expanded inst : 606330f60f00, 
addl %6, %3
Exec : ppc        399

Cycle       9349 ----------------------------------------------------

cycle       9349
On  3, writes         12   (wrE)

Cycle       9350 ----------------------------------------------------

cycle       9350
Fetch : from Pc        399 , expanded inst : 30f60f000000, 
irmovl $0000000f,  %6

Cycle       9351 ----------------------------------------------------

cycle       9351
Decode : from Pc        399 , expanded inst : 30f60f000000, 
irmovl $0000000f,  %6
Exec : ppc        405

Cycle       9352 ----------------------------------------------------

cycle       9352
On  6, writes         15   (wrE)

Cycle       9353 ----------------------------------------------------

cycle       9353
Fetch : from Pc        405 , expanded inst : 613674700100, 
subl %3, %6

Cycle       9354 ----------------------------------------------------

cycle       9354
Decode : from Pc        405 , expanded inst : 613674700100, 
subl %3, %6
Exec : ppc        407

Cycle       9355 ----------------------------------------------------

cycle       9355
On  6, writes          3   (wrE)

Cycle       9356 ----------------------------------------------------

cycle       9356
Fetch : from Pc        407 , expanded inst : 7470010000c0, 
jne $00000170

Cycle       9357 ----------------------------------------------------

cycle       9357
Decode : from Pc        407 , expanded inst : 7470010000c0, 
jne $00000170
Exec : ppc        412

Cycle       9358 ----------------------------------------------------

cycle       9358

Cycle       9359 ----------------------------------------------------

cycle       9359
Fetch : from Pc        368 , expanded inst : 506100000000, 
mrmovl 00000000(%1), %6

Cycle       9360 ----------------------------------------------------

cycle       9360
Decode : from Pc        368 , expanded inst : 506100000000, 
mrmovl 00000000(%1), %6
Exec : ppc        374

Cycle       9361 ----------------------------------------------------

cycle       9361
Loaded       4095 from        128
Stat update

Cycle       9362 ----------------------------------------------------

cycle       9362
On  6, writes       4095   (wrM)

Cycle       9363 ----------------------------------------------------

cycle       9363
Fetch : from Pc        374 , expanded inst : 500200000000, 
mrmovl 00000000(%2), %0

Cycle       9364 ----------------------------------------------------

cycle       9364
Decode : from Pc        374 , expanded inst : 500200000000, 
mrmovl 00000000(%2), %0
Exec : ppc        380

Cycle       9365 ----------------------------------------------------

cycle       9365
Loaded       4095 from         68
Stat update

Cycle       9366 ----------------------------------------------------

cycle       9366
On  0, writes       4095   (wrM)

Cycle       9367 ----------------------------------------------------

cycle       9367
Fetch : from Pc        380 , expanded inst : 6160749c0100, 
subl %6, %0

Cycle       9368 ----------------------------------------------------

cycle       9368
Decode : from Pc        380 , expanded inst : 6160749c0100, 
subl %6, %0
Exec : ppc        382

Cycle       9369 ----------------------------------------------------

cycle       9369
On  0, writes          0   (wrE)

Cycle       9370 ----------------------------------------------------

cycle       9370
Fetch : from Pc        382 , expanded inst : 749c01000060, 
jne $0000019c

Cycle       9371 ----------------------------------------------------

cycle       9371
Decode : from Pc        382 , expanded inst : 749c01000060, 
jne $0000019c
Exec : ppc        387

Cycle       9372 ----------------------------------------------------

cycle       9372

Cycle       9373 ----------------------------------------------------

cycle       9373
Fetch : from Pc        387 , expanded inst : 6071607230f6, 
addl %7, %1

Cycle       9374 ----------------------------------------------------

cycle       9374
Decode : from Pc        387 , expanded inst : 6071607230f6, 
addl %7, %1
Exec : ppc        389

Cycle       9375 ----------------------------------------------------

cycle       9375
On  1, writes        132   (wrE)

Cycle       9376 ----------------------------------------------------

cycle       9376
Fetch : from Pc        389 , expanded inst : 607230f60100, 
addl %7, %2

Cycle       9377 ----------------------------------------------------

cycle       9377
Decode : from Pc        389 , expanded inst : 607230f60100, 
addl %7, %2
Exec : ppc        391

Cycle       9378 ----------------------------------------------------

cycle       9378
On  2, writes         72   (wrE)

Cycle       9379 ----------------------------------------------------

cycle       9379
Fetch : from Pc        391 , expanded inst : 30f601000000, 
irmovl $00000001,  %6

Cycle       9380 ----------------------------------------------------

cycle       9380
Decode : from Pc        391 , expanded inst : 30f601000000, 
irmovl $00000001,  %6
Exec : ppc        397

Cycle       9381 ----------------------------------------------------

cycle       9381
On  6, writes          1   (wrE)

Cycle       9382 ----------------------------------------------------

cycle       9382
Fetch : from Pc        397 , expanded inst : 606330f60f00, 
addl %6, %3

Cycle       9383 ----------------------------------------------------

cycle       9383
Decode : from Pc        397 , expanded inst : 606330f60f00, 
addl %6, %3
Exec : ppc        399

Cycle       9384 ----------------------------------------------------

cycle       9384
On  3, writes         13   (wrE)

Cycle       9385 ----------------------------------------------------

cycle       9385
Fetch : from Pc        399 , expanded inst : 30f60f000000, 
irmovl $0000000f,  %6

Cycle       9386 ----------------------------------------------------

cycle       9386
Decode : from Pc        399 , expanded inst : 30f60f000000, 
irmovl $0000000f,  %6
Exec : ppc        405

Cycle       9387 ----------------------------------------------------

cycle       9387
On  6, writes         15   (wrE)

Cycle       9388 ----------------------------------------------------

cycle       9388
Fetch : from Pc        405 , expanded inst : 613674700100, 
subl %3, %6

Cycle       9389 ----------------------------------------------------

cycle       9389
Decode : from Pc        405 , expanded inst : 613674700100, 
subl %3, %6
Exec : ppc        407

Cycle       9390 ----------------------------------------------------

cycle       9390
On  6, writes          2   (wrE)

Cycle       9391 ----------------------------------------------------

cycle       9391
Fetch : from Pc        407 , expanded inst : 7470010000c0, 
jne $00000170

Cycle       9392 ----------------------------------------------------

cycle       9392
Decode : from Pc        407 , expanded inst : 7470010000c0, 
jne $00000170
Exec : ppc        412

Cycle       9393 ----------------------------------------------------

cycle       9393

Cycle       9394 ----------------------------------------------------

cycle       9394
Fetch : from Pc        368 , expanded inst : 506100000000, 
mrmovl 00000000(%1), %6

Cycle       9395 ----------------------------------------------------

cycle       9395
Decode : from Pc        368 , expanded inst : 506100000000, 
mrmovl 00000000(%1), %6
Exec : ppc        374

Cycle       9396 ----------------------------------------------------

cycle       9396
Loaded       8191 from        132
Stat update

Cycle       9397 ----------------------------------------------------

cycle       9397
On  6, writes       8191   (wrM)

Cycle       9398 ----------------------------------------------------

cycle       9398
Fetch : from Pc        374 , expanded inst : 500200000000, 
mrmovl 00000000(%2), %0

Cycle       9399 ----------------------------------------------------

cycle       9399
Decode : from Pc        374 , expanded inst : 500200000000, 
mrmovl 00000000(%2), %0
Exec : ppc        380

Cycle       9400 ----------------------------------------------------

cycle       9400
Loaded       8191 from         72
Stat update

Cycle       9401 ----------------------------------------------------

cycle       9401
On  0, writes       8191   (wrM)

Cycle       9402 ----------------------------------------------------

cycle       9402
Fetch : from Pc        380 , expanded inst : 6160749c0100, 
subl %6, %0

Cycle       9403 ----------------------------------------------------

cycle       9403
Decode : from Pc        380 , expanded inst : 6160749c0100, 
subl %6, %0
Exec : ppc        382

Cycle       9404 ----------------------------------------------------

cycle       9404
On  0, writes          0   (wrE)

Cycle       9405 ----------------------------------------------------

cycle       9405
Fetch : from Pc        382 , expanded inst : 749c01000060, 
jne $0000019c

Cycle       9406 ----------------------------------------------------

cycle       9406
Decode : from Pc        382 , expanded inst : 749c01000060, 
jne $0000019c
Exec : ppc        387

Cycle       9407 ----------------------------------------------------

cycle       9407

Cycle       9408 ----------------------------------------------------

cycle       9408
Fetch : from Pc        387 , expanded inst : 6071607230f6, 
addl %7, %1

Cycle       9409 ----------------------------------------------------

cycle       9409
Decode : from Pc        387 , expanded inst : 6071607230f6, 
addl %7, %1
Exec : ppc        389

Cycle       9410 ----------------------------------------------------

cycle       9410
On  1, writes        136   (wrE)

Cycle       9411 ----------------------------------------------------

cycle       9411
Fetch : from Pc        389 , expanded inst : 607230f60100, 
addl %7, %2

Cycle       9412 ----------------------------------------------------

cycle       9412
Decode : from Pc        389 , expanded inst : 607230f60100, 
addl %7, %2
Exec : ppc        391

Cycle       9413 ----------------------------------------------------

cycle       9413
On  2, writes         76   (wrE)

Cycle       9414 ----------------------------------------------------

cycle       9414
Fetch : from Pc        391 , expanded inst : 30f601000000, 
irmovl $00000001,  %6

Cycle       9415 ----------------------------------------------------

cycle       9415
Decode : from Pc        391 , expanded inst : 30f601000000, 
irmovl $00000001,  %6
Exec : ppc        397

Cycle       9416 ----------------------------------------------------

cycle       9416
On  6, writes          1   (wrE)

Cycle       9417 ----------------------------------------------------

cycle       9417
Fetch : from Pc        397 , expanded inst : 606330f60f00, 
addl %6, %3

Cycle       9418 ----------------------------------------------------

cycle       9418
Decode : from Pc        397 , expanded inst : 606330f60f00, 
addl %6, %3
Exec : ppc        399

Cycle       9419 ----------------------------------------------------

cycle       9419
On  3, writes         14   (wrE)

Cycle       9420 ----------------------------------------------------

cycle       9420
Fetch : from Pc        399 , expanded inst : 30f60f000000, 
irmovl $0000000f,  %6

Cycle       9421 ----------------------------------------------------

cycle       9421
Decode : from Pc        399 , expanded inst : 30f60f000000, 
irmovl $0000000f,  %6
Exec : ppc        405

Cycle       9422 ----------------------------------------------------

cycle       9422
On  6, writes         15   (wrE)

Cycle       9423 ----------------------------------------------------

cycle       9423
Fetch : from Pc        405 , expanded inst : 613674700100, 
subl %3, %6

Cycle       9424 ----------------------------------------------------

cycle       9424
Decode : from Pc        405 , expanded inst : 613674700100, 
subl %3, %6
Exec : ppc        407

Cycle       9425 ----------------------------------------------------

cycle       9425
On  6, writes          1   (wrE)

Cycle       9426 ----------------------------------------------------

cycle       9426
Fetch : from Pc        407 , expanded inst : 7470010000c0, 
jne $00000170

Cycle       9427 ----------------------------------------------------

cycle       9427
Decode : from Pc        407 , expanded inst : 7470010000c0, 
jne $00000170
Exec : ppc        412

Cycle       9428 ----------------------------------------------------

cycle       9428

Cycle       9429 ----------------------------------------------------

cycle       9429
Fetch : from Pc        368 , expanded inst : 506100000000, 
mrmovl 00000000(%1), %6

Cycle       9430 ----------------------------------------------------

cycle       9430
Decode : from Pc        368 , expanded inst : 506100000000, 
mrmovl 00000000(%1), %6
Exec : ppc        374

Cycle       9431 ----------------------------------------------------

cycle       9431
Loaded      16383 from        136
Stat update

Cycle       9432 ----------------------------------------------------

cycle       9432
On  6, writes      16383   (wrM)

Cycle       9433 ----------------------------------------------------

cycle       9433
Fetch : from Pc        374 , expanded inst : 500200000000, 
mrmovl 00000000(%2), %0

Cycle       9434 ----------------------------------------------------

cycle       9434
Decode : from Pc        374 , expanded inst : 500200000000, 
mrmovl 00000000(%2), %0
Exec : ppc        380

Cycle       9435 ----------------------------------------------------

cycle       9435
Loaded      16383 from         76
Stat update

Cycle       9436 ----------------------------------------------------

cycle       9436
On  0, writes      16383   (wrM)

Cycle       9437 ----------------------------------------------------

cycle       9437
Fetch : from Pc        380 , expanded inst : 6160749c0100, 
subl %6, %0

Cycle       9438 ----------------------------------------------------

cycle       9438
Decode : from Pc        380 , expanded inst : 6160749c0100, 
subl %6, %0
Exec : ppc        382

Cycle       9439 ----------------------------------------------------

cycle       9439
On  0, writes          0   (wrE)

Cycle       9440 ----------------------------------------------------

cycle       9440
Fetch : from Pc        382 , expanded inst : 749c01000060, 
jne $0000019c

Cycle       9441 ----------------------------------------------------

cycle       9441
Decode : from Pc        382 , expanded inst : 749c01000060, 
jne $0000019c
Exec : ppc        387

Cycle       9442 ----------------------------------------------------

cycle       9442

Cycle       9443 ----------------------------------------------------

cycle       9443
Fetch : from Pc        387 , expanded inst : 6071607230f6, 
addl %7, %1

Cycle       9444 ----------------------------------------------------

cycle       9444
Decode : from Pc        387 , expanded inst : 6071607230f6, 
addl %7, %1
Exec : ppc        389

Cycle       9445 ----------------------------------------------------

cycle       9445
On  1, writes        140   (wrE)

Cycle       9446 ----------------------------------------------------

cycle       9446
Fetch : from Pc        389 , expanded inst : 607230f60100, 
addl %7, %2

Cycle       9447 ----------------------------------------------------

cycle       9447
Decode : from Pc        389 , expanded inst : 607230f60100, 
addl %7, %2
Exec : ppc        391

Cycle       9448 ----------------------------------------------------

cycle       9448
On  2, writes         80   (wrE)

Cycle       9449 ----------------------------------------------------

cycle       9449
Fetch : from Pc        391 , expanded inst : 30f601000000, 
irmovl $00000001,  %6

Cycle       9450 ----------------------------------------------------

cycle       9450
Decode : from Pc        391 , expanded inst : 30f601000000, 
irmovl $00000001,  %6
Exec : ppc        397

Cycle       9451 ----------------------------------------------------

cycle       9451
On  6, writes          1   (wrE)

Cycle       9452 ----------------------------------------------------

cycle       9452
Fetch : from Pc        397 , expanded inst : 606330f60f00, 
addl %6, %3

Cycle       9453 ----------------------------------------------------

cycle       9453
Decode : from Pc        397 , expanded inst : 606330f60f00, 
addl %6, %3
Exec : ppc        399

Cycle       9454 ----------------------------------------------------

cycle       9454
On  3, writes         15   (wrE)

Cycle       9455 ----------------------------------------------------

cycle       9455
Fetch : from Pc        399 , expanded inst : 30f60f000000, 
irmovl $0000000f,  %6

Cycle       9456 ----------------------------------------------------

cycle       9456
Decode : from Pc        399 , expanded inst : 30f60f000000, 
irmovl $0000000f,  %6
Exec : ppc        405

Cycle       9457 ----------------------------------------------------

cycle       9457
On  6, writes         15   (wrE)

Cycle       9458 ----------------------------------------------------

cycle       9458
Fetch : from Pc        405 , expanded inst : 613674700100, 
subl %3, %6

Cycle       9459 ----------------------------------------------------

cycle       9459
Decode : from Pc        405 , expanded inst : 613674700100, 
subl %3, %6
Exec : ppc        407

Cycle       9460 ----------------------------------------------------

cycle       9460
On  6, writes          0   (wrE)

Cycle       9461 ----------------------------------------------------

cycle       9461
Fetch : from Pc        407 , expanded inst : 7470010000c0, 
jne $00000170

Cycle       9462 ----------------------------------------------------

cycle       9462
Decode : from Pc        407 , expanded inst : 7470010000c0, 
jne $00000170
Exec : ppc        412

Cycle       9463 ----------------------------------------------------

cycle       9463

Cycle       9464 ----------------------------------------------------

cycle       9464
Fetch : from Pc        412 , expanded inst : c00e0000aaaa, 
mtc0 %0, %e

Cycle       9465 ----------------------------------------------------

cycle       9465
Decode : from Pc        412 , expanded inst : c00e0000aaaa, 
mtc0 %0, %e
Exec : ppc        414

Cycle       9466 ----------------------------------------------------

cycle       9466
On 14, writes          0   (wrE)

Cycle       9467 ----------------------------------------------------
